60
44a cofacial 3.5A
C	-3.7066230209688085	-0.06435424425254282	-1.0229437461690507e-05
C	-3.4739116509688084	1.3595542957474573	1.9900562538309496e-05
C	-2.179848540968808	1.8296929357474574	-1.9459437461690507e-05
C	-1.0792678209688082	0.9305308957474572	2.1080562538309494e-05
C	-1.3325802309688082	-0.49823109425254286	-2.1429437461690507e-05
C	-2.6787808609688084	-0.9661663542525428	1.3830562538309493e-05
C	0.2471039290311917	1.3807395357474572	-1.4894374616905073e-06
C	1.3328746790311916	0.49956656574745717	-2.2279437461690507e-05
C	1.0792604690311918	-0.9291446542525429	2.1690562538309494e-05
C	-0.24693660096880832	-1.379289484252543	2.9056253830949263e-07
C	2.679464489031192	0.9668072757474572	1.1430562538309492e-05
C	3.706892909031192	0.0643689857474572	-8.359437461690508e-06
C	3.473406229031192	-1.359395944252543	2.0740562538309494e-05
C	2.179231169031192	-1.828837644252543	-2.0009437461690507e-05
C	-4.715844420968808	2.0972266457474573	-5.899437461690507e-06
C	-5.806938150968808	1.303366315747457	2.400562538309493e-06
S	-5.439664280968808	-0.4176397042525428	3.8056253830949267e-07
S	5.440284889031192	0.4163619957474572	3.305625383094926e-07
C	5.806383339031192	-1.305008324252543	1.8905625383094927e-06
C	4.714684449031192	-2.0980012342525427	-6.769437461690507e-06
H	-6.843449130968808	1.610386925747457	1.6905625383094927e-06
H	-4.766977120968808	3.179559855747457	1.6405625383094926e-06
H	-1.987486390968808	2.898768595747457	2.310562538309493e-06
H	0.4383252590311917	2.4508436957474573	3.905625383094926e-07
H	2.8666342890311918	2.036084335747457	-3.943746169050739e-08
H	6.842656839031192	-1.6129158042525429	4.305625383094926e-07
H	4.764730179031192	-3.1803591942525427	1.9805625383094927e-06
H	1.9861985790311918	-2.8977263042525427	3.7505625383094927e-06
H	-0.4381264909688083	-2.4493121042525425	6.905625383094926e-07
H	-2.865209700968808	-2.035496684252543	-3.6494374616905076e-06
C	-3.7066230737210217	-0.06435383729536662	3.4999897705625145
C	-3.4739117037210216	1.3595547027046335	3.5000199005625143
C	-2.1798485937210215	1.8296933427046336	3.499980540562514
C	-1.0792678737210213	0.9305313027046334	3.5000210805625143
C	-1.3325802837210212	-0.4982306872953667	3.499978570562514
C	-2.6787809137210217	-0.9661659472953666	3.5000138305625144
C	0.24710387627897856	1.3807399427046334	3.499998510562514
C	1.3328746262789786	0.49956697270463335	3.4999777205625144
C	1.0792604162789787	-0.9291442472953667	3.500021690562514
C	-0.24693665372102144	-1.3792890772953668	3.5000002905625145
C	2.6794644362789786	0.9668076827046334	3.5000114305625143
C	3.7068928562789787	0.0643693927046334	3.499991640562514
C	3.4734061762789787	-1.3593955372953668	3.500020740562514
C	2.1792311162789786	-1.8288372372953667	3.4999799905625144
C	-4.715844473721021	2.0972270527046337	3.4999941005625144
C	-5.806938203721021	1.3033667227046333	3.5000024005625145
S	-5.439664333721021	-0.41763929729536664	3.5000003805625144
S	5.440284836278979	0.41636240270463337	3.5000003305625143
C	5.806383286278979	-1.3050079172953668	3.5000018905625145
C	4.714684396278979	-2.0980008272953663	3.4999932305625143
H	-6.843449183721021	1.6103873327046332	3.5000016905625144
H	-4.766977173721021	3.1795602627046335	3.5000016405625143
H	-1.9874864437210211	2.8987690027046336	3.500002310562514
H	0.43832520627897853	2.4508441027046337	3.5000003905625143
H	2.8666342362789785	2.0360847427046336	3.4999999605625143
H	6.842656786278979	-1.6129153972953667	3.5000004305625145
H	4.7647301262789785	-3.1803587872953663	3.5000019805625144
H	1.9861985262789787	-2.8977258972953663	3.5000037505625143
H	-0.43812654372102144	-2.449311697295366	3.5000006905625143
H	-2.8652097537210213	-2.0354962772953664	3.4999963505625145
