60
44a PD long
C	-3.7066230209688085	-0.06435424425254282	-1.0229437461690507e-05
C	-3.4739116509688084	1.3595542957474573	1.9900562538309496e-05
C	-2.179848540968808	1.8296929357474574	-1.9459437461690507e-05
C	-1.0792678209688082	0.9305308957474572	2.1080562538309494e-05
C	-1.3325802309688082	-0.49823109425254286	-2.1429437461690507e-05
C	-2.6787808609688084	-0.9661663542525428	1.3830562538309493e-05
C	0.2471039290311917	1.3807395357474572	-1.4894374616905073e-06
C	1.3328746790311916	0.49956656574745717	-2.2279437461690507e-05
C	1.0792604690311918	-0.9291446542525429	2.1690562538309494e-05
C	-0.24693660096880832	-1.379289484252543	2.9056253830949263e-07
C	2.679464489031192	0.9668072757474572	1.1430562538309492e-05
C	3.706892909031192	0.0643689857474572	-8.359437461690508e-06
C	3.473406229031192	-1.359395944252543	2.0740562538309494e-05
C	2.179231169031192	-1.828837644252543	-2.0009437461690507e-05
C	-4.715844420968808	2.0972266457474573	-5.899437461690507e-06
C	-5.806938150968808	1.303366315747457	2.400562538309493e-06
S	-5.439664280968808	-0.4176397042525428	3.8056253830949267e-07
S	5.440284889031192	0.4163619957474572	3.305625383094926e-07
C	5.806383339031192	-1.305008324252543	1.8905625383094927e-06
C	4.714684449031192	-2.0980012342525427	-6.769437461690507e-06
H	-6.843449130968808	1.610386925747457	1.6905625383094927e-06
H	-4.766977120968808	3.179559855747457	1.6405625383094926e-06
H	-1.987486390968808	2.898768595747457	2.310562538309493e-06
H	0.4383252590311917	2.4508436957474573	3.905625383094926e-07
H	2.8666342890311918	2.036084335747457	-3.943746169050739e-08
H	6.842656839031192	-1.6129158042525429	4.305625383094926e-07
H	4.764730179031192	-3.1803591942525427	1.9805625383094927e-06
H	1.9861985790311918	-2.8977263042525427	3.7505625383094927e-06
H	-0.4381264909688083	-2.4493121042525425	6.905625383094926e-07
H	-2.865209700968808	-2.035496684252543	-3.6494374616905076e-06
C	0.3078934304141808	-0.5319235988282944	3.4999898854355145
C	0.5406048004141809	0.8919849411717058	3.5000200154355143
C	1.8346679104141812	1.3621235811717058	3.499980655435514
C	2.935248630414181	0.4629615411717056	3.5000211954355143
C	2.681936220414181	-0.9658004488282944	3.499978685435514
C	1.335735590414181	-1.4337357088282945	3.5000139454355144
C	4.261620380414181	0.9131701811717057	3.499998625435514
C	5.347391130414181	0.03199721117170564	3.4999778354355144
C	5.0937769204141805	-1.3967140088282946	3.5000218054355146
C	3.767579850414181	-1.8468588388282945	3.5000004054355145
C	6.693980940414181	0.4992379211717056	3.5000115454355143
C	7.721409360414182	-0.40320036882829435	3.499991755435514
C	7.487922680414181	-1.8269652988282945	3.5000208554355146
C	6.193747620414181	-2.296406998828294	3.4999801054355144
C	-0.7013279695858187	1.6296572911717058	3.4999942154355144
C	-1.7924216995858184	0.8357969611717055	3.5000025154355145
S	-1.4251478295858184	-0.8852090588282944	3.5000004954355144
S	9.454801340414182	-0.05120735882829434	3.5000004454355143
C	9.820899790414181	-1.7725776788282945	3.5000020054355145
C	8.729200900414181	-2.565570588828294	3.4999933454355143
H	-2.8289326795858187	1.1428175711717055	3.5000018054355144
H	-0.7524606695858188	2.711990501171706	3.5000017554355143
H	2.027030060414181	2.431199241171706	3.500002425435514
H	4.452841710414181	1.9832743411717058	3.5000005054355143
H	6.881150740414181	1.5685149811717056	3.5000000754355143
H	10.857173290414181	-2.080485158828294	3.5000005454355145
H	8.779246630414182	-3.647928548828294	3.5000020954355144
H	6.000715030414181	-3.365295658828294	3.5000038654355143
H	3.576389960414181	-2.9168814588282936	3.5000008054355143
H	1.1493067504141814	-2.503066038828294	3.4999964654355145
