60
44a cofacial 5.0A
C	-3.7066230209688085	-0.06435424425254282	-1.0229437461690507e-05
C	-3.4739116509688084	1.3595542957474573	1.9900562538309496e-05
C	-2.179848540968808	1.8296929357474574	-1.9459437461690507e-05
C	-1.0792678209688082	0.9305308957474572	2.1080562538309494e-05
C	-1.3325802309688082	-0.49823109425254286	-2.1429437461690507e-05
C	-2.6787808609688084	-0.9661663542525428	1.3830562538309493e-05
C	0.2471039290311917	1.3807395357474572	-1.4894374616905073e-06
C	1.3328746790311916	0.49956656574745717	-2.2279437461690507e-05
C	1.0792604690311918	-0.9291446542525429	2.1690562538309494e-05
C	-0.24693660096880832	-1.379289484252543	2.9056253830949263e-07
C	2.679464489031192	0.9668072757474572	1.1430562538309492e-05
C	3.706892909031192	0.0643689857474572	-8.359437461690508e-06
C	3.473406229031192	-1.359395944252543	2.0740562538309494e-05
C	2.179231169031192	-1.828837644252543	-2.0009437461690507e-05
C	-4.715844420968808	2.0972266457474573	-5.899437461690507e-06
C	-5.806938150968808	1.303366315747457	2.400562538309493e-06
S	-5.439664280968808	-0.4176397042525428	3.8056253830949267e-07
S	5.440284889031192	0.4163619957474572	3.305625383094926e-07
C	5.806383339031192	-1.305008324252543	1.8905625383094927e-06
C	4.714684449031192	-2.0980012342525427	-6.769437461690507e-06
H	-6.843449130968808	1.610386925747457	1.6905625383094927e-06
H	-4.766977120968808	3.179559855747457	1.6405625383094926e-06
H	-1.987486390968808	2.898768595747457	2.310562538309493e-06
H	0.4383252590311917	2.4508436957474573	3.905625383094926e-07
H	2.8666342890311918	2.036084335747457	-3.943746169050739e-08
H	6.842656839031192	-1.6129158042525429	4.305625383094926e-07
H	4.764730179031192	-3.1803591942525427	1.9805625383094927e-06
H	1.9861985790311918	-2.8977263042525427	3.7505625383094927e-06
H	-0.4381264909688083	-2.4493121042525425	6.905625383094926e-07
H	-2.865209700968808	-2.035496684252543	-3.6494374616905076e-06
C	-3.706623096329113	-0.06435366288514825	4.999989770562504
C	-3.473911726329113	1.359554877114852	5.000019900562504
C	-2.179848616329113	1.829693517114852	4.999980540562504
C	-1.0792678963291127	0.9305314771148517	5.000021080562504
C	-1.3325803063291126	-0.4982305128851483	4.9999785705625035
C	-2.678780936329113	-0.9661657728851483	5.000013830562503
C	0.24710385367088722	1.380740117114852	4.999998510562504
C	1.3328746036708872	0.49956714711485173	4.999977720562503
C	1.0792603936708873	-0.9291440728851483	5.0000216905625035
C	-0.2469366763291128	-1.3792889028851483	5.000000290562504
C	2.679464413670887	0.9668078571148517	5.000011430562504
C	3.7068928336708873	0.06436956711485177	4.999991640562504
C	3.4734061536708873	-1.3593953628851483	5.000020740562504
C	2.179231093670887	-1.8288370628851482	4.999979990562504
C	-4.715844496329113	2.097227227114852	4.999994100562503
C	-5.8069382263291125	1.3033668971148518	5.0000024005625034
S	-5.4396643563291125	-0.41763912288514826	5.000000380562503
S	5.440284813670887	0.41636257711485175	5.000000330562504
C	5.806383263670887	-1.3050077428851483	5.000001890562504
C	4.714684373670887	-2.098000652885148	4.999993230562504
H	-6.843449206329113	1.6103875071148517	5.000001690562503
H	-4.766977196329113	3.179560437114852	5.000001640562504
H	-1.9874864663291125	2.898769177114852	5.000002310562504
H	0.4383251836708872	2.450844277114852	5.000000390562503
H	2.866634213670887	2.036084917114852	4.999999960562504
H	6.842656763670887	-1.6129152228851482	5.000000430562504
H	4.764730103670887	-3.180358612885148	5.000001980562503
H	1.9861985036708873	-2.897725722885148	5.000003750562503
H	-0.4381265663291128	-2.449311522885148	5.000000690562504
H	-2.8652097763291127	-2.035496102885148	4.999996350562504
