60
44a cofacial 4.0A
C	-3.7066230209688085	-0.06435424425254282	-1.0229437461690507e-05
C	-3.4739116509688084	1.3595542957474573	1.9900562538309496e-05
C	-2.179848540968808	1.8296929357474574	-1.9459437461690507e-05
C	-1.0792678209688082	0.9305308957474572	2.1080562538309494e-05
C	-1.3325802309688082	-0.49823109425254286	-2.1429437461690507e-05
C	-2.6787808609688084	-0.9661663542525428	1.3830562538309493e-05
C	0.2471039290311917	1.3807395357474572	-1.4894374616905073e-06
C	1.3328746790311916	0.49956656574745717	-2.2279437461690507e-05
C	1.0792604690311918	-0.9291446542525429	2.1690562538309494e-05
C	-0.24693660096880832	-1.379289484252543	2.9056253830949263e-07
C	2.679464489031192	0.9668072757474572	1.1430562538309492e-05
C	3.706892909031192	0.0643689857474572	-8.359437461690508e-06
C	3.473406229031192	-1.359395944252543	2.0740562538309494e-05
C	2.179231169031192	-1.828837644252543	-2.0009437461690507e-05
C	-4.715844420968808	2.0972266457474573	-5.899437461690507e-06
C	-5.806938150968808	1.303366315747457	2.400562538309493e-06
S	-5.439664280968808	-0.4176397042525428	3.8056253830949267e-07
S	5.440284889031192	0.4163619957474572	3.305625383094926e-07
C	5.806383339031192	-1.305008324252543	1.8905625383094927e-06
C	4.714684449031192	-2.0980012342525427	-6.769437461690507e-06
H	-6.843449130968808	1.610386925747457	1.6905625383094927e-06
H	-4.766977120968808	3.179559855747457	1.6405625383094926e-06
H	-1.987486390968808	2.898768595747457	2.310562538309493e-06
H	0.4383252590311917	2.4508436957474573	3.905625383094926e-07
H	2.8666342890311918	2.036084335747457	-3.943746169050739e-08
H	6.842656839031192	-1.6129158042525429	4.305625383094926e-07
H	4.764730179031192	-3.1803591942525427	1.9805625383094927e-06
H	1.9861985790311918	-2.8977263042525427	3.7505625383094927e-06
H	-0.4381264909688083	-2.4493121042525425	6.905625383094926e-07
H	-2.865209700968808	-2.035496684252543	-3.6494374616905076e-06
C	-3.706623081257052	-0.06435377915862717	3.999989770562511
C	-3.473911711257052	1.359554760841373	4.000019900562511
C	-2.179848601257052	1.829693400841373	3.9999805405625106
C	-1.0792678812570518	0.9305313608413729	4.000021080562511
C	-1.3325802912570517	-0.4982306291586272	3.9999785705625106
C	-2.678780921257052	-0.9661658891586271	4.00001383056251
C	0.2471038687429481	1.3807400008413728	3.9999985105625107
C	1.332874618742948	0.49956703084137283	3.999977720562511
C	1.0792604087429483	-0.9291441891586272	4.000021690562511
C	-0.2469366612570519	-1.3792890191586273	4.000000290562511
C	2.679464428742948	0.9668077408413729	4.000011430562511
C	3.706892848742948	0.06436945084137285	3.9999916405625107
C	3.4734061687429483	-1.3593954791586274	4.000020740562511
C	2.179231108742948	-1.8288371791586273	3.999979990562511
C	-4.715844481257052	2.097227110841373	3.999994100562511
C	-5.806938211257052	1.3033667808413727	4.0000024005625106
S	-5.439664341257052	-0.41763923915862716	4.00000038056251
S	5.440284828742948	0.41636246084137285	4.000000330562511
C	5.806383278742948	-1.3050078591586274	4.000001890562511
C	4.714684388742948	-2.098000769158627	3.9999932305625108
H	-6.843449191257052	1.6103873908413726	4.00000169056251
H	-4.766977181257052	3.179560320841373	4.000001640562511
H	-1.9874864512570516	2.898769060841373	4.000002310562511
H	0.4383251987429481	2.450844160841373	4.00000039056251
H	2.866634228742948	2.036084800841373	3.9999999605625107
H	6.842656778742948	-1.6129153391586273	4.000000430562511
H	4.764730118742948	-3.180358729158627	4.00000198056251
H	1.9861985187429483	-2.897725839158627	4.00000375056251
H	-0.43812655125705185	-2.4493116391586267	4.000000690562511
H	-2.8652097612570517	-2.035496219158627	3.999996350562511
