60
44a TL45.0
C	-3.7066230209688085	-0.06435424425254282	-1.0229437461690507e-05
C	-3.4739116509688084	1.3595542957474573	1.9900562538309496e-05
C	-2.179848540968808	1.8296929357474574	-1.9459437461690507e-05
C	-1.0792678209688082	0.9305308957474572	2.1080562538309494e-05
C	-1.3325802309688082	-0.49823109425254286	-2.1429437461690507e-05
C	-2.6787808609688084	-0.9661663542525428	1.3830562538309493e-05
C	0.2471039290311917	1.3807395357474572	-1.4894374616905073e-06
C	1.3328746790311916	0.49956656574745717	-2.2279437461690507e-05
C	1.0792604690311918	-0.9291446542525429	2.1690562538309494e-05
C	-0.24693660096880832	-1.379289484252543	2.9056253830949263e-07
C	2.679464489031192	0.9668072757474572	1.1430562538309492e-05
C	3.706892909031192	0.0643689857474572	-8.359437461690508e-06
C	3.473406229031192	-1.359395944252543	2.0740562538309494e-05
C	2.179231169031192	-1.828837644252543	-2.0009437461690507e-05
C	-4.715844420968808	2.0972266457474573	-5.899437461690507e-06
C	-5.806938150968808	1.303366315747457	2.400562538309493e-06
S	-5.439664280968808	-0.4176397042525428	3.8056253830949267e-07
S	5.440284889031192	0.4163619957474572	3.305625383094926e-07
C	5.806383339031192	-1.305008324252543	1.8905625383094927e-06
C	4.714684449031192	-2.0980012342525427	-6.769437461690507e-06
H	-6.843449130968808	1.610386925747457	1.6905625383094927e-06
H	-4.766977120968808	3.179559855747457	1.6405625383094926e-06
H	-1.987486390968808	2.898768595747457	2.310562538309493e-06
H	0.4383252590311917	2.4508436957474573	3.905625383094926e-07
H	2.8666342890311918	2.036084335747457	-3.943746169050739e-08
H	6.842656839031192	-1.6129158042525429	4.305625383094926e-07
H	4.764730179031192	-3.1803591942525427	1.9805625383094927e-06
H	1.9861985790311918	-2.8977263042525427	3.7505625383094927e-06
H	-0.4381264909688083	-2.4493121042525425	6.905625383094926e-07
H	-2.865209700968808	-2.035496684252543	-3.6494374616905076e-06
C	-3.689926276602926	0.07900149323913369	-4.769005557303606
C	-3.5060536051858797	1.0835851312410587	-3.7498526404727697
C	-2.2328832759158606	1.3743401372580266	-3.3138153551683165
C	-1.10635733410078	0.6979415596195807	-3.8552897900611414
C	-1.3105859261736972	-0.3093909545867546	-4.879545564239899
C	-2.6357632203789088	-0.5968216459465672	-5.318303221260614
C	0.19966438972320125	0.9734266099526754	-3.4305956846382784
C	1.310837981288202	0.3103602717612138	-3.9606902098055454
C	1.1062999891436553	-0.6969867260546364	-4.984873862946936
C	-0.19954629015109482	-0.972401402183332	-5.40953995287555
C	2.6364206641578716	0.5972355792981969	-3.522339770755786
C	3.690196264450729	-0.0789880670919138	-4.072142089924918
C	3.5055416435750812	-1.0834851009483981	-5.091215682186504
C	2.2322428997566672	-1.3736845301347378	-5.526829269641978
C	-4.767943501381137	1.6499072973113547	-3.333354626170417
C	-5.828042154161396	1.122168057636006	-3.980179094277708
S	-5.4042845060958395	-0.11387305977135528	-5.158900277700407
S	5.404945759872845	0.1129421598002351	-3.6831127961083454
C	5.82754456382796	-1.123320938434412	-4.862183471051419
C	4.766815316189522	-1.650411139625157	-5.5084601957023915
H	-6.870823261894471	1.3753538855192773	-3.8493312263551447
H	-4.855304102931642	2.4211908334322896	-2.57734565615712
H	-2.077258481826918	2.127991991668987	-2.5471891295285425
H	0.3541198470002055	1.7278621214574876	-2.663354470288037
H	2.7868694028590935	1.3512287378772234	-2.756020347117654
H	6.870119149076483	-1.3771278377284675	-4.993675201243634
H	4.853092709063955	-2.421687131347535	-6.264563948380957
H	2.075940275467085	-2.127212836200666	-6.293346803975567
H	-0.35397336154874226	-1.7267815961087085	-6.176719712764125
H	-2.785469742525342	-1.3508572858390917	-6.0846199171154645
