60
44a PD short
C	-3.7066230209688085	-0.06435424425254282	-1.0229437461690507e-05
C	-3.4739116509688084	1.3595542957474573	1.9900562538309496e-05
C	-2.179848540968808	1.8296929357474574	-1.9459437461690507e-05
C	-1.0792678209688082	0.9305308957474572	2.1080562538309494e-05
C	-1.3325802309688082	-0.49823109425254286	-2.1429437461690507e-05
C	-2.6787808609688084	-0.9661663542525428	1.3830562538309493e-05
C	0.2471039290311917	1.3807395357474572	-1.4894374616905073e-06
C	1.3328746790311916	0.49956656574745717	-2.2279437461690507e-05
C	1.0792604690311918	-0.9291446542525429	2.1690562538309494e-05
C	-0.24693660096880832	-1.379289484252543	2.9056253830949263e-07
C	2.679464489031192	0.9668072757474572	1.1430562538309492e-05
C	3.706892909031192	0.0643689857474572	-8.359437461690508e-06
C	3.473406229031192	-1.359395944252543	2.0740562538309494e-05
C	2.179231169031192	-1.828837644252543	-2.0009437461690507e-05
C	-4.715844420968808	2.0972266457474573	-5.899437461690507e-06
C	-5.806938150968808	1.303366315747457	2.400562538309493e-06
S	-5.439664280968808	-0.4176397042525428	3.8056253830949267e-07
S	5.440284889031192	0.4163619957474572	3.305625383094926e-07
C	5.806383339031192	-1.305008324252543	1.8905625383094927e-06
C	4.714684449031192	-2.0980012342525427	-6.769437461690507e-06
H	-6.843449130968808	1.610386925747457	1.6905625383094927e-06
H	-4.766977120968808	3.179559855747457	1.6405625383094926e-06
H	-1.987486390968808	2.898768595747457	2.310562538309493e-06
H	0.4383252590311917	2.4508436957474573	3.905625383094926e-07
H	2.8666342890311918	2.036084335747457	-3.943746169050739e-08
H	6.842656839031192	-1.6129158042525429	4.305625383094926e-07
H	4.764730179031192	-3.1803591942525427	1.9805625383094927e-06
H	1.9861985790311918	-2.8977263042525427	3.7505625383094927e-06
H	-0.4381264909688083	-2.4493121042525425	6.905625383094926e-07
H	-2.865209700968808	-2.035496684252543	-3.6494374616905076e-06
C	-3.923450297772834	-1.9260150077012634	3.499989983756302
C	-3.6907389277728337	-0.5021064677012632	3.500020113756302
C	-2.3966758177728336	-0.03196782770126314	3.499980753756302
C	-1.2960950977728332	-0.9311298677012634	3.500021293756302
C	-1.549407507772833	-2.359891857701263	3.499978783756302
C	-2.8956081377728338	-2.827827117701263	3.500014043756302
C	0.030276652227166596	-0.48092122770126333	3.499998723756302
C	1.1160474022271667	-1.3620941977012635	3.499977933756302
C	0.8624331922271666	-2.790805417701263	3.500021903756302
C	-0.46376387777283345	-3.2409502477012633	3.500000503756302
C	2.4626372122271665	-0.8948534877012634	3.5000116437563022
C	3.4900656322271666	-1.7972917777012634	3.499991853756302
C	3.2565789522271666	-3.2210567077012633	3.500020953756302
C	1.962403892227167	-3.6904984077012633	3.499980203756302
C	-4.932671697772833	0.2355658822987368	3.499994313756302
C	-6.023765427772833	-0.5582944477012635	3.500002613756302
S	-5.656491557772833	-2.279300467701263	3.500000593756302
S	5.2234576122271665	-1.4452987677012634	3.500000543756302
C	5.5895560622271665	-3.1666690877012633	3.500002103756302
C	4.4978571722271665	-3.959661997701263	3.499993443756302
H	-7.060276407772833	-0.25127383770126355	3.500001903756302
H	-4.9838043977728335	1.3178990922987366	3.5000018537563022
H	-2.2043136677728334	1.0371078322987366	3.500002523756302
H	0.2214979822271666	0.5891829322987368	3.500000603756302
H	2.6498070122271664	0.17442357229873665	3.5000001737563022
H	6.625829562227167	-3.474576567701263	3.500000643756302
H	4.547902902227166	-5.042019957701263	3.500002193756302
H	1.7693713022271669	-4.759387067701263	3.500003963756302
H	-0.6549537677728334	-4.310972867701262	3.5000009037563022
H	-3.0820369777728334	-3.897157447701263	3.499996563756302
