60
4cene_F1 PD short
C	-4.898586442156108	-0.6215835750819974	5.932809494627882e-05
C	-4.871519892156108	0.8064849749180028	-5.959190505372118e-05
C	-3.686854792156108	1.4822073949180028	8.013809494627882e-05
C	-2.447372372156108	0.7676780149180027	-4.672190505372118e-05
C	-2.474674612156108	-0.6747624350819974	5.451809494627882e-05
C	-3.740394552156108	-1.3417643750819972	-7.883190505372118e-05
C	-1.218440972156108	1.4103470149180026	8.348094946278816e-06
C	0.013763567843891988	0.7292573949180026	-3.525190505372118e-05
C	-0.013768302156107998	-0.7294920250819974	3.159809494627882e-05
C	-1.270902622156108	-1.3634750350819973	-2.0541905053721182e-05
C	1.2708131978438921	1.3633112249180026	2.7888094946278817e-05
C	2.474594847843892	0.6746873749180027	2.639809494627882e-05
C	2.447449577843892	-0.7677559050819973	-2.876190505372118e-05
C	1.218523567843892	-1.4105133950819972	-2.164190505372118e-05
C	3.740131997843892	1.3419539849180027	-7.408190505372119e-05
C	4.898467257843892	0.6220369949180027	5.615809494627882e-05
C	4.871657797843892	-0.8060366450819973	-5.640190505372118e-05
C	3.687125427843892	-1.4820272650819972	7.759809494627882e-05
F	-1.326014452156108	-2.7109867350819976	1.3898094946278817e-05
F	1.222688077843892	-2.7591455150819977	-9.891905053721184e-06
H	3.661987087843892	-2.5644193050819974	-6.161905053721183e-06
H	3.755510667843892	2.4245036849180024	2.908094946278817e-06
F	1.325833957843892	2.7107708949180025	6.368094946278817e-06
F	-1.222517442156108	2.7589237449180026	-1.0071905053721184e-05
H	-3.661388722156108	2.5645725349180024	-8.291905053721184e-06
H	-5.807162142156108	1.3557973049180028	3.628094946278817e-06
H	-5.854368162156108	-1.1350654750819973	-4.661905053721183e-06
H	-3.756098142156108	-2.4243288250819974	5.418094946278817e-06
H	5.854134637843892	1.1357339549180028	-4.241905053721183e-06
H	5.807419477843892	-1.3551440650819973	3.968094946278816e-06
C	-4.938192128947489	-2.718994457388078	3.5000593796454504
C	-4.911125578947489	-1.2909259073880779	3.4999404596454506
C	-3.72646047894749	-0.6152034873880778	3.5000801896454505
C	-2.4869780589474897	-1.329732867388078	3.4999533296454506
C	-2.5142802989474897	-2.772173317388078	3.5000545696454504
C	-3.78000023894749	-3.439175257388078	3.4999212196454503
C	-1.2580466589474895	-0.687063867388078	3.5000083996454507
C	-0.025842118947489535	-1.368153487388078	3.4999647996454506
C	-0.05337398894748952	-2.826902907388078	3.5000316496454507
C	-1.3105083089474894	-3.460885917388078	3.4999795096454505
C	1.2312075110525107	-0.734099657388078	3.5000279396454506
C	2.4349891610525103	-1.422723507388078	3.5000264496454507
C	2.40784389105251	-2.865166787388078	3.4999712896454507
C	1.1789178810525105	-3.507924277388078	3.4999784096454505
C	3.70052631105251	-0.755456897388078	3.4999259696454503
C	4.858861571052511	-1.475373887388078	3.5000562096454506
C	4.832052111052511	-2.903447527388078	3.4999436496454503
C	3.64751974105251	-3.579438147388078	3.5000776496454504
F	-1.3656201389474893	-4.808397617388078	3.5000139496454503
F	1.1830823910525106	-4.856556397388078	3.4999901596454506
H	3.62238140105251	-4.661830187388078	3.4999938896454506
H	3.71590498105251	0.3270928026119218	3.5000029596454505
F	1.2862282710525106	0.6133600126119219	3.5000064196454503
F	-1.2621231289474895	0.661512862611922	3.4999899796454503
H	-3.7009944089474898	0.46716165261192183	3.4999917596454506
H	-5.846767828947489	-0.7416135773880779	3.5000036796454506
H	-5.893973848947489	-3.232476357388078	3.4999953896454503
H	-3.79570382894749	-4.521739707388078	3.5000054696454503
H	5.814528951052511	-0.9616769273880779	3.4999958096454504
H	5.767813791052511	-3.452554947388078	3.5000040196454507
