60
4cene_F1 cofacial 5.0A
C	-4.898586442156108	-0.6215835750819974	5.932809494627882e-05
C	-4.871519892156108	0.8064849749180028	-5.959190505372118e-05
C	-3.686854792156108	1.4822073949180028	8.013809494627882e-05
C	-2.447372372156108	0.7676780149180027	-4.672190505372118e-05
C	-2.474674612156108	-0.6747624350819974	5.451809494627882e-05
C	-3.740394552156108	-1.3417643750819972	-7.883190505372118e-05
C	-1.218440972156108	1.4103470149180026	8.348094946278816e-06
C	0.013763567843891988	0.7292573949180026	-3.525190505372118e-05
C	-0.013768302156107998	-0.7294920250819974	3.159809494627882e-05
C	-1.270902622156108	-1.3634750350819973	-2.0541905053721182e-05
C	1.2708131978438921	1.3633112249180026	2.7888094946278817e-05
C	2.474594847843892	0.6746873749180027	2.639809494627882e-05
C	2.447449577843892	-0.7677559050819973	-2.876190505372118e-05
C	1.218523567843892	-1.4105133950819972	-2.164190505372118e-05
C	3.740131997843892	1.3419539849180027	-7.408190505372119e-05
C	4.898467257843892	0.6220369949180027	5.615809494627882e-05
C	4.871657797843892	-0.8060366450819973	-5.640190505372118e-05
C	3.687125427843892	-1.4820272650819972	7.759809494627882e-05
F	-1.326014452156108	-2.7109867350819976	1.3898094946278817e-05
F	1.222688077843892	-2.7591455150819977	-9.891905053721184e-06
H	3.661987087843892	-2.5644193050819974	-6.161905053721183e-06
H	3.755510667843892	2.4245036849180024	2.908094946278817e-06
F	1.325833957843892	2.7107708949180025	6.368094946278817e-06
F	-1.222517442156108	2.7589237449180026	-1.0071905053721184e-05
H	-3.661388722156108	2.5645725349180024	-8.291905053721184e-06
H	-5.807162142156108	1.3557973049180028	3.628094946278817e-06
H	-5.854368162156108	-1.1350654750819973	-4.661905053721183e-06
H	-3.756098142156108	-2.4243288250819974	5.418094946278817e-06
H	5.854134637843892	1.1357339549180028	-4.241905053721183e-06
H	5.807419477843892	-1.3551440650819973	3.968094946278816e-06
C	-4.898586642124777	-0.6215834484151622	5.000059328094941
C	-4.871520092124777	0.8064851015848379	4.999940408094941
C	-3.6868549921247773	1.482207521584838	5.000080138094941
C	-2.447372572124777	0.7676781415848378	4.999953278094941
C	-2.474674812124777	-0.6747623084151623	5.000054518094941
C	-3.7403947521247773	-1.341764248415162	4.999921168094941
C	-1.2184411721247774	1.4103471415848379	5.000008348094941
C	0.013763367875222646	0.7292575215848377	4.999964748094941
C	-0.01376850212477734	-0.7294918984151623	5.000031598094941
C	-1.2709028221247773	-1.363474908415162	4.999979458094941
C	1.2708129978752227	1.3633113515848378	5.000027888094941
C	2.474594647875223	0.6746875015848378	5.000026398094941
C	2.447449377875223	-0.7677557784151622	4.999971238094941
C	1.2185233678752225	-1.410513268415162	4.999978358094941
C	3.7401317978752227	1.341954111584838	4.999925918094941
C	4.898467057875223	0.6220371215848378	5.0000561580949405
C	4.871657597875223	-0.8060365184151622	4.999943598094941
C	3.6871252278752227	-1.482027138415162	5.000077598094941
F	-1.3260146521247773	-2.7109866084151624	5.000013898094941
F	1.2226878778752226	-2.7591453884151624	4.999990108094941
H	3.661986887875223	-2.564419178415162	4.999993838094941
H	3.7555104678752227	2.4245038115848376	5.000002908094941
F	1.3258337578752226	2.7107710215848377	5.000006368094941
F	-1.2225176421247774	2.758923871584838	4.999989928094941
H	-3.661388922124777	2.5645726615848377	4.9999917080949405
H	-5.807162342124777	1.355797431584838	5.000003628094941
H	-5.854368362124777	-1.135065348415162	4.999995338094941
H	-3.756098342124777	-2.424328698415162	5.000005418094941
H	5.8541344378752225	1.135734081584838	4.999995758094941
H	5.807419277875223	-1.355143938415162	5.000003968094941
