72
78d TL45.0
C	-3.7055546556255683	-0.6144256484295335	-1.7895709977593514e-06
C	-3.669523235625568	0.8021830415704664	-2.2395709977593513e-06
C	-2.4524720656255683	1.4855207515704665	1.4770429002240649e-05
C	-1.207140565625568	0.7491941915704664	-2.036957099775935e-05
C	-1.2436836856255682	-0.6867106284295336	1.793042900224065e-05
C	-2.524814725625568	-1.3586873684295337	-8.97957099775935e-06
C	0.035404674374431844	1.3872349615704664	3.750429002240649e-06
C	1.2436458743744319	0.6863843015704664	1.6970429002240648e-05
C	1.207160084374432	-0.7495230784295336	-1.604957099775935e-05
C	-0.035414675625568215	-1.3875806484295339	-1.0895709977593513e-06
C	2.524659304374432	1.3585306515704665	-1.4949570997759351e-05
C	3.705488504374432	0.6144532415704664	4.660429002240649e-06
C	3.6695876943744317	-0.8021580184295335	-6.019570997759351e-06
C	2.4526181643744316	-1.4856861784295337	1.4960429002240649e-05
S	-5.030164405625568	1.8957123215704663	-1.7295709977593511e-06
C	-3.957074725625568	3.269159801570466	2.870429002240649e-06
C	-2.6483014656255683	2.9073412515704664	-7.009570997759351e-06
S	-5.119961035625568	-1.6374470684295335	1.1042900224064862e-07
C	-4.1179041756255685	-3.0635685284295335	-1.8995709977593512e-06
C	-2.792520455625568	-2.7686928684295338	8.780429002240649e-06
C	2.792109654374432	2.7685771515704665	7.630429002240648e-06
C	4.117439254374432	3.0636706715704665	-6.995709977593514e-07
S	5.119735264374432	1.6377087515704665	-5.695709977593513e-07
S	5.030402494374432	-1.8954561184295335	-1.2095709977593514e-06
C	3.957549234374432	-3.269079228429534	2.700429002240649e-06
C	2.648708824374432	-2.907477618429534	-6.4195709977593515e-06
H	-4.374532825625568	4.265285661570466	2.9904290022406486e-06
H	4.375212344374432	-4.2651221384295335	2.300429002240649e-06
H	4.584631584374431	4.037394141570466	1.6004290022406488e-06
H	0.0634127443744319	2.4702841415704664	-1.0295709977593515e-06
H	-0.06342583562556814	-2.4706365984295338	8.004290022406486e-07
H	-1.8463788756255681	3.6343653315704665	5.150429002240649e-06
H	-2.028533005625568	-3.5354585384295336	-2.295709977593514e-07
H	-4.585282975625568	-4.037205218429533	1.4404290022406486e-06
H	1.846902054374432	-3.634630398429534	5.090429002240648e-06
H	2.027998194374432	3.5352165215704665	4.904290022406486e-07
C	-3.700268099857249	-0.40694430888337435	-5.98527739571129
C	-3.6748085474530057	0.5947500920076925	-4.983260139260187
C	-2.463085269626263	1.0689839162933892	-4.478291868502579
C	-1.212498279326993	0.5389196842802356	-4.976379650648481
C	-1.2383262062017084	-0.4764457468236028	-5.992019356793396
C	-2.514201728653243	-0.9421590893876973	-6.490117956714595
C	0.02505191923126315	0.9809199675716629	-4.502966560599903
C	1.2382902083673195	0.47619016017503757	-4.976611069144259
C	1.212520904233906	-0.539127094680674	-5.992301983181326
C	-0.02505938728993664	-0.9811666651664586	-6.465699846720725
C	2.514047937807098	0.9420659300778559	-4.478436293117118
C	3.700201704774246	0.40696190136176386	-4.983126011251887
C	3.6748729571798493	-0.594727423822677	-5.985150602062085
C	2.4632320399730894	-1.0691234159251262	-6.490225164210152
S	-5.043346680240582	1.3783471229089315	-4.234775168144798
C	-3.980704132156223	2.3417758174155194	-3.2445855866685407
C	-2.669480962898562	2.076108902765196	-3.4767816249095405
S	-5.106776073766496	-1.1199768344375087	-6.733901580732538
C	-4.09427362010235	-2.136139880730043	-7.723947950365391
C	-2.7713411249940325	-1.937467490793296	-7.491628009166105
C	2.7709309703370204	1.937376719836471	-3.4768733336504956
C	4.093808073324394	2.1362170428197738	-3.2444138090033663
S	5.106548403155273	1.1201635423685679	-4.2343415828873585
S	5.043582867020618	-1.3781659973630294	-6.733465268214313
C	3.981177850580493	-2.341726693147834	-7.723768722926833
C	2.6698895042243036	-2.0761992879943185	-7.4917406791268935
H	-4.40551198560082	3.0494457638345813	-2.547965511732854
H	4.406190061472018	-3.0493393003297116	-8.420326667944089
H	4.553649580057717	2.8214426119110625	-2.547694513021329
H	0.044977401953802815	1.74675169057944	-3.736882540743166
H	-0.04498785688308729	-1.7470011106529169	-7.23179075132973
H	-1.873133104063799	2.584341402426404	-2.948412750525905
H	-2.001780173179178	-2.485489828792668	-8.019883510817293
H	-4.554302310186232	-2.821306666704801	-8.420605273955315
H	1.8736579769018507	-2.5845404123240416	-8.020181705377684
H	2.001247264906612	2.4853220671814387	-2.948720763926341
