72
78d cofacial 5.0A
C	-3.7055546556255683	-0.6144256484295335	-1.7895709977593514e-06
C	-3.669523235625568	0.8021830415704664	-2.2395709977593513e-06
C	-2.4524720656255683	1.4855207515704665	1.4770429002240649e-05
C	-1.207140565625568	0.7491941915704664	-2.036957099775935e-05
C	-1.2436836856255682	-0.6867106284295336	1.793042900224065e-05
C	-2.524814725625568	-1.3586873684295337	-8.97957099775935e-06
C	0.035404674374431844	1.3872349615704664	3.750429002240649e-06
C	1.2436458743744319	0.6863843015704664	1.6970429002240648e-05
C	1.207160084374432	-0.7495230784295336	-1.604957099775935e-05
C	-0.035414675625568215	-1.3875806484295339	-1.0895709977593513e-06
C	2.524659304374432	1.3585306515704665	-1.4949570997759351e-05
C	3.705488504374432	0.6144532415704664	4.660429002240649e-06
C	3.6695876943744317	-0.8021580184295335	-6.019570997759351e-06
C	2.4526181643744316	-1.4856861784295337	1.4960429002240649e-05
S	-5.030164405625568	1.8957123215704663	-1.7295709977593511e-06
C	-3.957074725625568	3.269159801570466	2.870429002240649e-06
C	-2.6483014656255683	2.9073412515704664	-7.009570997759351e-06
S	-5.119961035625568	-1.6374470684295335	1.1042900224064862e-07
C	-4.1179041756255685	-3.0635685284295335	-1.8995709977593512e-06
C	-2.792520455625568	-2.7686928684295338	8.780429002240649e-06
C	2.792109654374432	2.7685771515704665	7.630429002240648e-06
C	4.117439254374432	3.0636706715704665	-6.995709977593514e-07
S	5.119735264374432	1.6377087515704665	-5.695709977593513e-07
S	5.030402494374432	-1.8954561184295335	-1.2095709977593514e-06
C	3.957549234374432	-3.269079228429534	2.700429002240649e-06
C	2.648708824374432	-2.907477618429534	-6.4195709977593515e-06
H	-4.374532825625568	4.265285661570466	2.9904290022406486e-06
H	4.375212344374432	-4.2651221384295335	2.300429002240649e-06
H	4.584631584374431	4.037394141570466	1.6004290022406488e-06
H	0.0634127443744319	2.4702841415704664	-1.0295709977593515e-06
H	-0.06342583562556814	-2.4706365984295338	8.004290022406486e-07
H	-1.8463788756255681	3.6343653315704665	5.150429002240649e-06
H	-2.028533005625568	-3.5354585384295336	-2.295709977593514e-07
H	-4.585282975625568	-4.037205218429533	1.4404290022406486e-06
H	1.846902054374432	-3.634630398429534	5.090429002240648e-06
H	2.027998194374432	3.5352165215704665	4.904290022406486e-07
C	-3.705554656124046	-0.6144254715254928	4.999998210428998
C	-3.6695232361240455	0.8021832184745071	4.9999977604289985
C	-2.452472066124046	1.4855209284745072	5.000014770428999
C	-1.2071405661240455	0.7491943684745072	4.9999796304289985
C	-1.2436836861240457	-0.6867104515254928	5.0000179304289984
C	-2.524814726124046	-1.358687191525493	4.999991020428999
C	0.03540467387595432	1.3872351384745072	5.0000037504289985
C	1.2436458738759544	0.6863844784745071	5.000016970428999
C	1.2071600838759544	-0.7495229015254928	4.999983950428999
C	-0.03541467612404574	-1.3875804715254931	4.999998910428999
C	2.5246593038759544	1.3585308284745072	4.999985050428998
C	3.705488503875954	0.6144534184745072	5.000004660428998
C	3.669587693875954	-0.8021578415254927	4.999993980428998
C	2.452618163875954	-1.485686001525493	5.000014960428999
S	-5.030164406124046	1.895712498474507	4.999998270428999
C	-3.9570747261240458	3.269159978474507	5.0000028704289985
C	-2.648301466124046	2.907341428474507	4.999992990428999
S	-5.119961036124046	-1.6374468915254927	5.000000110428998
C	-4.117904176124046	-3.063568351525493	4.999998100428999
C	-2.7925204561240458	-2.768692691525493	5.000008780428999
C	2.7921096538759542	2.768577328474507	5.000007630428999
C	4.117439253875954	3.063670848474507	4.999999300428999
S	5.119735263875954	1.6377089284745072	4.999999430428999
S	5.030402493875954	-1.8954559415254928	4.999998790428998
C	3.9575492338759544	-3.2690790515254933	5.000002700428999
C	2.648708823875954	-2.907477441525493	4.999993580428999
H	-4.374532826124046	4.265285838474507	5.000002990428999
H	4.375212343875955	-4.265121961525493	5.000002300428998
H	4.584631583875954	4.037394318474507	5.000001600428999
H	0.06341274387595437	2.470284318474507	4.999998970428999
H	-0.06342583612404566	-2.470636421525493	5.000000800428999
H	-1.8463788761240456	3.6343655084745072	5.000005150428999
H	-2.0285330061240456	-3.535458361525493	4.999999770428999
H	-4.585282976124046	-4.0372050415254925	5.000001440428998
H	1.8469020538759544	-3.634630221525493	5.000005090428998
H	2.027998193875954	3.5352166984745073	5.000000490428999
