72
78d TS90.0
C	-3.7055546556255683	-0.6144256484295335	-1.7895709977593514e-06
C	-3.669523235625568	0.8021830415704664	-2.2395709977593513e-06
C	-2.4524720656255683	1.4855207515704665	1.4770429002240649e-05
C	-1.207140565625568	0.7491941915704664	-2.036957099775935e-05
C	-1.2436836856255682	-0.6867106284295336	1.793042900224065e-05
C	-2.524814725625568	-1.3586873684295337	-8.97957099775935e-06
C	0.035404674374431844	1.3872349615704664	3.750429002240649e-06
C	1.2436458743744319	0.6863843015704664	1.6970429002240648e-05
C	1.207160084374432	-0.7495230784295336	-1.604957099775935e-05
C	-0.035414675625568215	-1.3875806484295339	-1.0895709977593513e-06
C	2.524659304374432	1.3585306515704665	-1.4949570997759351e-05
C	3.705488504374432	0.6144532415704664	4.660429002240649e-06
C	3.6695876943744317	-0.8021580184295335	-6.019570997759351e-06
C	2.4526181643744316	-1.4856861784295337	1.4960429002240649e-05
S	-5.030164405625568	1.8957123215704663	-1.7295709977593511e-06
C	-3.957074725625568	3.269159801570466	2.870429002240649e-06
C	-2.6483014656255683	2.9073412515704664	-7.009570997759351e-06
S	-5.119961035625568	-1.6374470684295335	1.1042900224064862e-07
C	-4.1179041756255685	-3.0635685284295335	-1.8995709977593512e-06
C	-2.792520455625568	-2.7686928684295338	8.780429002240649e-06
C	2.792109654374432	2.7685771515704665	7.630429002240648e-06
C	4.117439254374432	3.0636706715704665	-6.995709977593514e-07
S	5.119735264374432	1.6377087515704665	-5.695709977593513e-07
S	5.030402494374432	-1.8954561184295335	-1.2095709977593514e-06
C	3.957549234374432	-3.269079228429534	2.700429002240649e-06
C	2.648708824374432	-2.907477618429534	-6.4195709977593515e-06
H	-4.374532825625568	4.265285661570466	2.9904290022406486e-06
H	4.375212344374432	-4.2651221384295335	2.300429002240649e-06
H	4.584631584374431	4.037394141570466	1.6004290022406488e-06
H	0.0634127443744319	2.4702841415704664	-1.0295709977593515e-06
H	-0.06342583562556814	-2.4706365984295338	8.004290022406486e-07
H	-1.8463788756255681	3.6343653315704665	5.150429002240649e-06
H	-2.028533005625568	-3.5354585384295336	-2.295709977593514e-07
H	-4.585282975625568	-4.037205218429533	1.4404290022406486e-06
H	1.846902054374432	-3.634630398429534	5.090429002240648e-06
H	2.027998194374432	3.5352165215704665	4.904290022406486e-07
C	-0.0180475071468253	-0.7083818261894376	4.968348153878213
C	0.018047530580379743	0.7082252428515713	4.968284865269395
C	0.036220015995822884	1.4221099922046667	6.167535590518559
C	0.01831396703446718	0.7179703145148716	7.431218318422209
C	-0.018310579172740742	-0.7179324307745311	7.431261572656142
C	-0.036225457019934265	-1.422095508151409	6.167662388148846
C	0.035342485768814054	1.3872368523871064	8.657108618997611
C	0.018267354095732075	0.717606854398406	9.882809459678828
C	-0.018285923241335822	-0.7182988060438326	9.882910090518909
C	-0.03535395622822626	-1.3875818892685252	8.656990707440897
C	0.0362452853432847	1.4219349385347049	11.146286752139016
C	0.018045295181971215	0.708408402720815	12.345685532810839
C	-0.01803859685785805	-0.7081981924075361	12.345879454504898
C	-0.03625385642259447	-1.4222702217312193	11.14671519379742
S	0.04500886551823922	1.7663988618730808	3.5802314231635686
C	0.08067267172256966	3.1662796160659514	4.617989298888649
C	0.07231865632768873	2.8380210410945277	5.935553956769716
S	-0.0450163299109841	-1.7667547043541665	3.58045847276838
C	-0.08067763063342759	-3.1664354427848935	4.618515538370473
C	-0.07231996978882826	-2.8380023867146704	5.935958340696676
C	0.07230034949818137	2.837877315233555	11.377734458121221
C	0.08068252644764592	3.1665262276827217	12.695117608805603
S	0.04502330395657421	1.7670110697634802	13.73340968310726
S	-0.04499925086680279	-1.766136224743284	13.734100581796497
C	-0.0806758830025354	-3.166186258231408	12.696583522908625
C	-0.07230844129759312	-2.8381466763168395	11.378957262581606
H	0.10576613463623784	4.151129406032786	4.175293914298244
H	-0.10576682083650288	-4.150947938948243	13.139481738130437
H	0.10577732946063202	4.15151419902782	13.137356250731164
H	0.06294319633692176	2.4702964117734107	8.657520814006197
H	-0.06295195212375666	-2.470648366555796	8.656575595876292
H	0.09133904779576664	3.584993214738695	6.718698036687153
H	-0.0913395051725862	-3.5848172931340616	6.719228517170166
H	-0.10577598311105148	-4.151341294886199	4.176088276536101
H	-0.09135569704059575	-3.585243914413717	10.595932243256732
H	0.09133273319939884	3.5845624345486278	10.594343528921506
