72
78d cofacial 4.5A
C	-3.7055546556255683	-0.6144256484295335	-1.7895709977593514e-06
C	-3.669523235625568	0.8021830415704664	-2.2395709977593513e-06
C	-2.4524720656255683	1.4855207515704665	1.4770429002240649e-05
C	-1.207140565625568	0.7491941915704664	-2.036957099775935e-05
C	-1.2436836856255682	-0.6867106284295336	1.793042900224065e-05
C	-2.524814725625568	-1.3586873684295337	-8.97957099775935e-06
C	0.035404674374431844	1.3872349615704664	3.750429002240649e-06
C	1.2436458743744319	0.6863843015704664	1.6970429002240648e-05
C	1.207160084374432	-0.7495230784295336	-1.604957099775935e-05
C	-0.035414675625568215	-1.3875806484295339	-1.0895709977593513e-06
C	2.524659304374432	1.3585306515704665	-1.4949570997759351e-05
C	3.705488504374432	0.6144532415704664	4.660429002240649e-06
C	3.6695876943744317	-0.8021580184295335	-6.019570997759351e-06
C	2.4526181643744316	-1.4856861784295337	1.4960429002240649e-05
S	-5.030164405625568	1.8957123215704663	-1.7295709977593511e-06
C	-3.957074725625568	3.269159801570466	2.870429002240649e-06
C	-2.6483014656255683	2.9073412515704664	-7.009570997759351e-06
S	-5.119961035625568	-1.6374470684295335	1.1042900224064862e-07
C	-4.1179041756255685	-3.0635685284295335	-1.8995709977593512e-06
C	-2.792520455625568	-2.7686928684295338	8.780429002240649e-06
C	2.792109654374432	2.7685771515704665	7.630429002240648e-06
C	4.117439254374432	3.0636706715704665	-6.995709977593514e-07
S	5.119735264374432	1.6377087515704665	-5.695709977593513e-07
S	5.030402494374432	-1.8954561184295335	-1.2095709977593514e-06
C	3.957549234374432	-3.269079228429534	2.700429002240649e-06
C	2.648708824374432	-2.907477618429534	-6.4195709977593515e-06
H	-4.374532825625568	4.265285661570466	2.9904290022406486e-06
H	4.375212344374432	-4.2651221384295335	2.300429002240649e-06
H	4.584631584374431	4.037394141570466	1.6004290022406488e-06
H	0.0634127443744319	2.4702841415704664	-1.0295709977593515e-06
H	-0.06342583562556814	-2.4706365984295338	8.004290022406486e-07
H	-1.8463788756255681	3.6343653315704665	5.150429002240649e-06
H	-2.028533005625568	-3.5354585384295336	-2.295709977593514e-07
H	-4.585282975625568	-4.037205218429533	1.4404290022406486e-06
H	1.846902054374432	-3.634630398429534	5.090429002240648e-06
H	2.027998194374432	3.5352165215704665	4.904290022406486e-07
C	-3.705554656074198	-0.6144254892158968	4.499998210428999
C	-3.6695232360741974	0.8021832007841031	4.499997760428999
C	-2.452472066074198	1.4855209107841032	4.500014770429
C	-1.2071405660741978	0.7491943507841031	4.499979630428999
C	-1.243683686074198	-0.6867104692158968	4.500017930428999
C	-2.5248147260741978	-1.358687209215897	4.4999910204289995
C	0.03540467392580207	1.3872351207841032	4.500003750428999
C	1.243645873925802	0.6863844607841031	4.500016970429
C	1.207160083925802	-0.7495229192158969	4.499983950429
C	-0.03541467607419799	-1.3875804892158972	4.4999989104289995
C	2.5246593039258025	1.3585308107841032	4.499985050428999
C	3.7054885039258023	0.6144534007841032	4.500004660428999
C	3.669587693925802	-0.8021578592158968	4.499993980428999
C	2.452618163925802	-1.485686019215897	4.500014960429
S	-5.0301644060741975	1.895712480784103	4.499998270429
C	-3.9570747260741976	3.2691599607841026	4.500002870428999
C	-2.648301466074198	2.907341410784103	4.499992990429
S	-5.119961036074198	-1.6374469092158968	4.500000110428999
C	-4.117904176074198	-3.063568369215897	4.499998100429
C	-2.7925204560741976	-2.7686927092158973	4.500008780429
C	2.7921096539258023	2.768577310784103	4.500007630429
C	4.117439253925802	3.063670830784103	4.499999300429
S	5.1197352639258025	1.6377089107841032	4.499999430429
S	5.030402493925802	-1.8954559592158968	4.499998790428999
C	3.9575492339258025	-3.2690790692158975	4.5000027004289995
C	2.6487088239258023	-2.9074774592158974	4.499993580429
H	-4.374532826074198	4.265285820784103	4.5000029904289995
H	4.375212343925803	-4.2651219792158965	4.500002300428999
H	4.584631583925802	4.037394300784103	4.500001600429
H	0.06341274392580212	2.470284300784103	4.499998970429
H	-0.06342583607419791	-2.4706364392158973	4.5000008004289995
H	-1.846378876074198	3.634365490784103	4.500005150429
H	-2.0285330060741975	-3.535458379215897	4.499999770429
H	-4.585282976074198	-4.037205059215896	4.500001440428999
H	1.846902053925802	-3.6346302392158973	4.500005090428999
H	2.0279981939258023	3.535216680784103	4.500000490429
