72
78d TS45.0
C	-3.7055546556255683	-0.6144256484295335	-1.7895709977593514e-06
C	-3.669523235625568	0.8021830415704664	-2.2395709977593513e-06
C	-2.4524720656255683	1.4855207515704665	1.4770429002240649e-05
C	-1.207140565625568	0.7491941915704664	-2.036957099775935e-05
C	-1.2436836856255682	-0.6867106284295336	1.793042900224065e-05
C	-2.524814725625568	-1.3586873684295337	-8.97957099775935e-06
C	0.035404674374431844	1.3872349615704664	3.750429002240649e-06
C	1.2436458743744319	0.6863843015704664	1.6970429002240648e-05
C	1.207160084374432	-0.7495230784295336	-1.604957099775935e-05
C	-0.035414675625568215	-1.3875806484295339	-1.0895709977593513e-06
C	2.524659304374432	1.3585306515704665	-1.4949570997759351e-05
C	3.705488504374432	0.6144532415704664	4.660429002240649e-06
C	3.6695876943744317	-0.8021580184295335	-6.019570997759351e-06
C	2.4526181643744316	-1.4856861784295337	1.4960429002240649e-05
S	-5.030164405625568	1.8957123215704663	-1.7295709977593511e-06
C	-3.957074725625568	3.269159801570466	2.870429002240649e-06
C	-2.6483014656255683	2.9073412515704664	-7.009570997759351e-06
S	-5.119961035625568	-1.6374470684295335	1.1042900224064862e-07
C	-4.1179041756255685	-3.0635685284295335	-1.8995709977593512e-06
C	-2.792520455625568	-2.7686928684295338	8.780429002240649e-06
C	2.792109654374432	2.7685771515704665	7.630429002240648e-06
C	4.117439254374432	3.0636706715704665	-6.995709977593514e-07
S	5.119735264374432	1.6377087515704665	-5.695709977593513e-07
S	5.030402494374432	-1.8954561184295335	-1.2095709977593514e-06
C	3.957549234374432	-3.269079228429534	2.700429002240649e-06
C	2.648708824374432	-2.907477618429534	-6.4195709977593515e-06
H	-4.374532825625568	4.265285661570466	2.9904290022406486e-06
H	4.375212344374432	-4.2651221384295335	2.300429002240649e-06
H	4.584631584374431	4.037394141570466	1.6004290022406488e-06
H	0.0634127443744319	2.4702841415704664	-1.0295709977593515e-06
H	-0.06342583562556814	-2.4706365984295338	8.004290022406486e-07
H	-1.8463788756255681	3.6343653315704665	5.150429002240649e-06
H	-2.028533005625568	-3.5354585384295336	-2.295709977593514e-07
H	-4.585282975625568	-4.037205218429533	1.4404290022406486e-06
H	1.846902054374432	-3.634630398429534	5.090429002240648e-06
H	2.027998194374432	3.5352165215704665	4.904290022406486e-07
C	-2.6255080678941467	-0.6419447037131856	4.031572392404229
C	-2.5894578491100977	0.7746635072989921	4.031527343160896
C	-1.7235571695021057	1.4669484352749191	4.8795377016751855
C	-0.8482048198145782	0.7400488423340231	5.773071469793318
C	-0.8847876271956254	-0.6958549664451227	5.773129116303206
C	-1.7959200666909478	-1.377259169085384	4.879610525673918
C	0.03538488604768021	1.3872357006787757	6.6399238795440905
C	0.8847337777396553	0.6955295180475402	7.506634593834609
C	0.8482419150857053	-0.7403777072205663	7.506682380876136
C	-0.035396420239129964	-1.38758087866423	6.639837040423306
C	1.7958258825950104	1.3771013617370305	8.400025394681316
C	2.625459454445112	0.6419723198104414	9.24814226174908
C	2.589509464075222	-0.7746376870864922	9.248271812434371
C	1.7236382535416384	-1.4671117357642631	8.400349456567698
S	-3.543679882205168	1.857837339399943	3.050025717729639
C	-2.7744471305459166	3.2390270104149006	3.783834622089855
C	-1.8514474214206746	2.8870378644572567	4.715486535303944
S	-3.6335441676164395	-1.675320326758895	3.050187515345952
C	-2.9354270667406483	-3.093697485237867	3.784203263896028
C	-1.9957957751531747	-2.7889929593914995	4.715783559959622
C	1.9954927519415442	2.7888749661913512	8.56369962429196
C	2.9351008271527466	3.093796564623226	9.495224298178373
S	3.633386755183371	1.6755807379508687	10.229407736184486
S	3.543852268655592	-1.8575789923673935	10.229895771009119
C	2.774779410742039	-3.2389423435150286	9.49626316734374
C	1.8517440193790489	-2.8871709393459737	8.564554259590338
H	-3.0622849430753587	4.2318501811178795	3.4708018129309526
H	3.0627630427523664	-4.231681056059829	9.809439201428937
H	3.2728048227974895	4.070819361790962	9.807935881566433
H	0.06327560666487464	2.47028787070913	6.640211981330747
H	-0.06328733401818389	-2.47063989250502	6.639544832781413
H	-1.2788366222180136	3.6199047458567284	5.269261634224365
H	-1.4611420193696454	-3.5499152698974266	5.2696328312691705
H	-3.2732662916088007	-4.070634808006906	3.4713622941748286
H	1.279197447667725	-3.6201652061841796	8.010880086437957
H	1.4607617584116084	3.549669784954256	8.009753548134437
