84
101c TS90.0anti
C	-4.954591460496319	-0.276578032964115	8.391130605344066e-05
C	-4.825543360496319	1.158066737035885	-9.835869394655934e-05
C	-3.5423757704963195	1.7250049370358849	7.494130605344066e-05
C	-2.3897800804963194	0.940375637035885	-0.00013293869394655932
C	-2.5191962004963195	-0.49722037296411514	0.00013745130605344067
C	-3.79329817049632	-1.063485682964115	-8.716869394655933e-05
C	-1.0780626804963194	1.505259327035885	6.307130605344067e-05
C	0.04367269950368069	0.721163817035885	-5.729869394655933e-05
C	-0.08586595049631951	-0.716243902964115	6.846130605344067e-05
C	-1.3295692204963192	-1.287351362964115	-6.791869394655934e-05
N	1.3283593295036806	1.248295337035885	1.1891306053440671e-05
C	2.4962522095036808	0.494332297035885	-5.7158693946559325e-05
C	2.3675508095036806	-0.9317567229641148	4.987130605344067e-05
N	1.0837249495036807	-1.464574732964115	-5.618693946559329e-06
C	3.7467090095036806	1.065722647035885	5.3791306053440675e-05
C	4.92524786950368	0.27399157703588495	-9.473869394655933e-05
C	4.7965061495036805	-1.1504872029641149	0.00010736130605344067
C	3.4952428495036805	-1.718015302964115	-6.765869394655934e-05
C	6.2223354795036805	0.842416457035885	3.5311306053440676e-05
C	7.3452681295036815	0.04538188703588486	-1.259869394655933e-05
C	7.218139549503681	-1.360163412964115	1.929130605344067e-05
C	5.970389039503681	-1.942608452964115	-3.885869394655933e-05
H	1.4202316195036806	2.252035557035885	3.441306053440671e-06
H	0.9946566495036806	-2.468574222964115	-7.608693946559328e-06
H	-0.9752192104963195	2.587395067035885	-1.2418693946559328e-05
H	-3.4463069604963192	2.807792277035885	3.113060534406707e-07
H	-3.8920858604963198	-2.146033072964115	1.2031306053440672e-05
H	-1.4216521104963196	-2.3704525429641152	1.4131306053440672e-05
H	3.3922632795036805	-2.8002039729641153	1.390130605344067e-05
H	5.873252689503681	-3.0247037829641155	3.0113060534406707e-06
H	8.107786489503681	-1.9819314929641152	2.021306053440671e-06
H	8.33196222950368	0.49757385703588497	-5.618693946559329e-06
H	6.32137967950368	1.9243446570358849	-3.888693946559329e-06
H	3.8395293295036805	2.148832167035885	-5.098693946559329e-06
C	-6.011437620496318	1.949878307035885	3.8011306053440674e-05
C	-7.250291610496319	1.3666223570358849	-6.458693946559329e-06
C	-7.377602220496319	-0.049400412964115015	1.1913060534406708e-06
C	-6.262630080496319	-0.8441846929641152	-1.9808693946559332e-05
H	-5.91436498049632	3.031966057035885	7.013060534406708e-07
H	-8.143337540496319	1.983793767035885	-2.3686939465593295e-06
H	-8.366262280496318	-0.49773214296411483	1.4181306053440671e-05
H	-6.360101550496319	-1.926222782964115	-1.5008693946559329e-05
C	-0.06476048702848455	-0.717351067385939	-16.033383201063188
C	0.06475751469259912	0.7172513408943371	-16.03366393389968
C	0.125629004881941	1.3943767623157086	-14.806580464030738
C	0.06496074276502344	0.719120453799863	-13.588192887756085
C	-0.0649119107122869	-0.718434399056399	-13.588013715492343
C	-0.12559902973155754	-1.3940863063596591	-14.806128593270309
C	0.12585604439804543	1.396762919413421	-12.332490450812164
C	0.06489957601482911	0.7192843956421232	-11.144886474384943
C	-0.06481318122473428	-0.7181076281863498	-11.144846242622005
C	-0.12577613957535963	-1.3958364448187397	-12.332250445954235
N	0.12232720552855436	1.357050530661854	-9.912716110410889
C	0.06438638960898288	0.7135936168842189	-8.68184645379774
C	-0.0642887651051505	-0.7124977683850428	-8.681988587652969
N	-0.12223162638759635	-1.35582634988288	-9.912791104191923
C	0.12545441787375286	1.39220466695388	-7.48774139489527
C	0.06430109953233738	0.7122290334386936	-6.242877802658731
C	-0.0643250671152529	-0.7122601621667242	-6.243204666899411
C	-0.125393478591602	-1.3915890187940434	-7.488257800111675
C	0.12546083284814058	1.3920700083532729	-5.002064011238172
C	0.06328474645556328	0.7018703019977547	-3.8121058841874182
C	-0.0634657268549411	-0.703709083240307	-3.812526040388831
C	-0.12555311359666566	-1.3930389642279188	-5.002943208776648
H	0.2128378448910241	2.360913500306882	-9.91133432730277
H	-0.21273244889762816	-2.359696701221877	-9.911356943588494
H	0.22353258312031207	2.4793644460621924	-12.327220433097194
H	0.2233083428374165	2.477018916395928	-14.808116248472112
H	-0.2233032990693508	-2.476731363645202	-14.807322251654746
H	-0.22345880026769957	-2.4784328176711035	-12.32671666177712
H	-0.22308189336284714	-2.4742546739129185	-7.493658615909899
H	-0.2231465455622801	-2.4750930890483627	-5.002532784037705
H	-0.1118794227049446	-1.2409131251957	-2.8706475159402505
H	0.11167039609632562	1.2386486500867522	-2.869996199125378
H	0.22305204006668314	2.474129192095157	-5.000559285683767
H	0.22312070284029537	2.4748773338243977	-7.492541476132159
C	0.1258708461339749	1.3966480064404478	-17.285860447410457
C	0.06376903795173479	0.7073105166913713	-18.46734421978054
C	-0.0638957305335371	-0.7086803266510461	-18.467004965306465
C	-0.12596155616146254	-1.3973573045156904	-17.285177237335656
H	0.22345854505339144	2.478689324798024	-17.286333644283268
H	0.11175739220784221	1.2396498209084845	-19.412195300887564
H	-0.11197190830836233	-1.2418035596379875	-19.4114192568718
H	-0.22351565067520662	-2.479387946053391	-17.285105718361216
