84
101c TL90.0
C	-4.954591460496319	-0.276578032964115	8.391130605344066e-05
C	-4.825543360496319	1.158066737035885	-9.835869394655934e-05
C	-3.5423757704963195	1.7250049370358849	7.494130605344066e-05
C	-2.3897800804963194	0.940375637035885	-0.00013293869394655932
C	-2.5191962004963195	-0.49722037296411514	0.00013745130605344067
C	-3.79329817049632	-1.063485682964115	-8.716869394655933e-05
C	-1.0780626804963194	1.505259327035885	6.307130605344067e-05
C	0.04367269950368069	0.721163817035885	-5.729869394655933e-05
C	-0.08586595049631951	-0.716243902964115	6.846130605344067e-05
C	-1.3295692204963192	-1.287351362964115	-6.791869394655934e-05
N	1.3283593295036806	1.248295337035885	1.1891306053440671e-05
C	2.4962522095036808	0.494332297035885	-5.7158693946559325e-05
C	2.3675508095036806	-0.9317567229641148	4.987130605344067e-05
N	1.0837249495036807	-1.464574732964115	-5.618693946559329e-06
C	3.7467090095036806	1.065722647035885	5.3791306053440675e-05
C	4.92524786950368	0.27399157703588495	-9.473869394655933e-05
C	4.7965061495036805	-1.1504872029641149	0.00010736130605344067
C	3.4952428495036805	-1.718015302964115	-6.765869394655934e-05
C	6.2223354795036805	0.842416457035885	3.5311306053440676e-05
C	7.3452681295036815	0.04538188703588486	-1.259869394655933e-05
C	7.218139549503681	-1.360163412964115	1.929130605344067e-05
C	5.970389039503681	-1.942608452964115	-3.885869394655933e-05
H	1.4202316195036806	2.252035557035885	3.441306053440671e-06
H	0.9946566495036806	-2.468574222964115	-7.608693946559328e-06
H	-0.9752192104963195	2.587395067035885	-1.2418693946559328e-05
H	-3.4463069604963192	2.807792277035885	3.113060534406707e-07
H	-3.8920858604963198	-2.146033072964115	1.2031306053440672e-05
H	-1.4216521104963196	-2.3704525429641152	1.4131306053440672e-05
H	3.3922632795036805	-2.8002039729641153	1.390130605344067e-05
H	5.873252689503681	-3.0247037829641155	3.0113060534406707e-06
H	8.107786489503681	-1.9819314929641152	2.021306053440671e-06
H	8.33196222950368	0.49757385703588497	-5.618693946559329e-06
H	6.32137967950368	1.9243446570358849	-3.888693946559329e-06
H	3.8395293295036805	2.148832167035885	-5.098693946559329e-06
C	-6.011437620496318	1.949878307035885	3.8011306053440674e-05
C	-7.250291610496319	1.3666223570358849	-6.458693946559329e-06
C	-7.377602220496319	-0.049400412964115015	1.1913060534406708e-06
C	-6.262630080496319	-0.8441846929641152	-1.9808693946559332e-05
H	-5.91436498049632	3.031966057035885	7.013060534406708e-07
H	-8.143337540496319	1.983793767035885	-2.3686939465593295e-06
H	-8.366262280496318	-0.49773214296411483	1.4181306053440671e-05
H	-6.360101550496319	-1.926222782964115	-1.5008693946559329e-05
C	-4.889924744882671	0.4407647553987511	-6.079810765921787
C	-4.890191817708479	0.44097184151046465	-4.639373697802612
C	-3.6680819299153047	0.33062317146388254	-3.9595144404149965
C	-2.4545949686385837	0.2214345943858755	-4.637487342296945
C	-2.4544369502950434	0.22114886230461123	-6.0808967736718085
C	-3.6676098663681853	0.33074338179064605	-6.7592718902014735
C	-1.203983746681594	0.10849369289701265	-3.957110914577095
C	-0.02116390109584949	0.0019819280691141345	-4.637323015966509
C	-0.021131276636314072	0.0018527169282920352	-6.080555919352212
C	-1.2037254764037664	0.108601930738642	-6.761024241394537
N	1.2060217877968178	-0.10871979930673913	-3.9969732724680407
C	2.4319278638803503	-0.21916736744050822	-4.643030295433855
C	2.431780510763707	-0.21926154743013293	-6.07491504086525
N	1.2059559293550919	-0.10869628107990581	-6.720851021559572
C	3.621198135272691	-0.32649290395943714	-3.9616738513881717
C	4.861048859238301	-0.43811779644579785	-4.644390497921685
C	4.860708981543176	-0.4382900756610237	-6.07467512721275
C	3.6207021704962745	-0.32632624961456036	-6.756746649168351
C	6.0968374876065345	-0.5496561959103764	-3.961800737837219
C	7.281995503454407	-0.6564515034363508	-4.654792140574977
C	7.281577942616196	-0.65644587915443	-6.066074923306061
C	6.095975954230616	-0.5495040568583863	-6.758198420225101
H	1.2073960619956117	-0.10883520750027213	-2.9890382323795084
H	1.2073871626201802	-0.1088233103995017	-7.7287925245368045
H	-1.1987311339309508	0.1080959597207695	-2.8701119280672907
H	-3.6696077079020033	0.3308356548275916	-2.8724747574497957
H	-3.6688047129985266	0.3307514963472135	-7.846316710532113
H	-1.198218513007403	0.10802308866026192	-7.848018615702127
H	3.615318743123486	-0.3259228179600134	-7.843810571814306
H	6.096383857703776	-0.5495828696436671	-7.844644738666805
H	8.219655192848634	-0.740997324566867	-6.605453592824532
H	8.220297929088918	-0.7410475970236445	-4.115834921721596
H	6.098336759359492	-0.5497519980793992	-2.8753495755424407
H	3.6164198317113434	-0.32600300535916393	-2.874604959642114
C	-6.137344751803987	0.5532672462824241	-3.9572372906759616
C	-7.314050654565589	0.6593933403476198	-4.649369636612326
C	-7.313709667704009	0.6593549189504614	-6.071103915191598
C	-6.136651632362228	0.5532628152188055	-6.762568861602794
H	-6.137815583267043	0.5533471536086102	-2.870804241905252
H	-8.255087258842709	0.7442248085147972	-4.114874254174957
H	-8.254309194324035	0.7441380479512075	-6.606393001659613
H	-6.136577937472682	0.553251352070363	-7.84898826042422
