84
101c TS45.0anti
C	-4.954591460496319	-0.276578032964115	8.391130605344066e-05
C	-4.825543360496319	1.158066737035885	-9.835869394655934e-05
C	-3.5423757704963195	1.7250049370358849	7.494130605344066e-05
C	-2.3897800804963194	0.940375637035885	-0.00013293869394655932
C	-2.5191962004963195	-0.49722037296411514	0.00013745130605344067
C	-3.79329817049632	-1.063485682964115	-8.716869394655933e-05
C	-1.0780626804963194	1.505259327035885	6.307130605344067e-05
C	0.04367269950368069	0.721163817035885	-5.729869394655933e-05
C	-0.08586595049631951	-0.716243902964115	6.846130605344067e-05
C	-1.3295692204963192	-1.287351362964115	-6.791869394655934e-05
N	1.3283593295036806	1.248295337035885	1.1891306053440671e-05
C	2.4962522095036808	0.494332297035885	-5.7158693946559325e-05
C	2.3675508095036806	-0.9317567229641148	4.987130605344067e-05
N	1.0837249495036807	-1.464574732964115	-5.618693946559329e-06
C	3.7467090095036806	1.065722647035885	5.3791306053440675e-05
C	4.92524786950368	0.27399157703588495	-9.473869394655933e-05
C	4.7965061495036805	-1.1504872029641149	0.00010736130605344067
C	3.4952428495036805	-1.718015302964115	-6.765869394655934e-05
C	6.2223354795036805	0.842416457035885	3.5311306053440676e-05
C	7.3452681295036815	0.04538188703588486	-1.259869394655933e-05
C	7.218139549503681	-1.360163412964115	1.929130605344067e-05
C	5.970389039503681	-1.942608452964115	-3.885869394655933e-05
H	1.4202316195036806	2.252035557035885	3.441306053440671e-06
H	0.9946566495036806	-2.468574222964115	-7.608693946559328e-06
H	-0.9752192104963195	2.587395067035885	-1.2418693946559328e-05
H	-3.4463069604963192	2.807792277035885	3.113060534406707e-07
H	-3.8920858604963198	-2.146033072964115	1.2031306053440672e-05
H	-1.4216521104963196	-2.3704525429641152	1.4131306053440672e-05
H	3.3922632795036805	-2.8002039729641153	1.390130605344067e-05
H	5.873252689503681	-3.0247037829641155	3.0113060534406707e-06
H	8.107786489503681	-1.9819314929641152	2.021306053440671e-06
H	8.33196222950368	0.49757385703588497	-5.618693946559329e-06
H	6.32137967950368	1.9243446570358849	-3.888693946559329e-06
H	3.8395293295036805	2.148832167035885	-5.098693946559329e-06
C	-6.011437620496318	1.949878307035885	3.8011306053440674e-05
C	-7.250291610496319	1.3666223570358849	-6.458693946559329e-06
C	-7.377602220496319	-0.049400412964115015	1.1913060534406708e-06
C	-6.262630080496319	-0.8441846929641152	-1.9808693946559332e-05
H	-5.91436498049632	3.031966057035885	7.013060534406708e-07
H	-8.143337540496319	1.983793767035885	-2.3686939465593295e-06
H	-8.366262280496318	-0.49773214296411483	1.4181306053440671e-05
H	-6.360101550496319	-1.926222782964115	-1.5008693946559329e-05
C	-3.5224286273570655	-0.4056522954331928	-11.855674738019378
C	-3.3931658864266243	1.0289731249634864	-11.856003953932035
C	-2.4680713110284183	1.628189235717031	-10.988203230343522
C	-1.670747639574425	0.8755853529214352	-10.12681924815017
C	-1.8004108418471874	-0.5619883825623261	-10.126499532394893
C	-2.719019882368851	-1.1602990260524186	-10.98799479429699
C	-0.7254676971102232	1.4735009529227048	-9.238765801132091
C	0.04991392546344842	0.7206269385159705	-8.399087229391123
C	-0.07972942009972905	-0.7167713430738359	-8.39896802848338
C	-0.9769605338906368	-1.3191109730830586	-9.23868516647791
N	0.9751168401141815	1.2801635339565103	-7.527763095357112
C	1.783998874660837	0.55856294248486	-6.657454822281378
C	1.6552592022069263	-0.867522626823294	-6.65747783181468
N	0.7305083769647716	-1.432708872332219	-7.527825057217116
C	2.6860467208416328	1.1613600518094813	-5.813017446723111
C	3.5015484207766727	0.4023543754349314	-4.932870121311691
C	3.372755367857102	-1.0221197759753522	-4.9329565323371565
C	2.4348082251209093	-1.6223984213097413	-5.813464940154494
C	4.436588205429523	1.0034154687749037	-4.055391180071026
C	5.2124292988258345	0.23766890252034684	-3.2139967193253858
C	5.085396528495334	-1.167885033864347	-3.2142694784288155
C	4.1849419590040515	-1.781636502089523	-4.056061772727706
H	1.066595068491075	2.2839392759300483	-7.526793278161085
H	0.6410200508160131	-2.4366704997512763	-7.5268110837058835
H	-0.6241050736674332	2.555770180944183	-9.235094091405363
H	-2.3714986296954508	2.710931154576571	-10.989343341412644
H	-2.8175325402377016	-2.242871207747506	-10.988767317138741
H	-1.0707187788176913	-2.402061130413214	-9.234712796009505
H	2.3333433818427762	-2.7047236333663225	-5.817224845872491
H	4.087653089884593	-2.863718083224144	-4.055740576704745
H	5.70029820689055	-1.7648866490670354	-2.548272315665616
H	5.924296909462598	0.7146346595904747	-2.5478203190642867
H	4.535224374913267	2.085380449761412	-4.054356272365597
H	2.780312056754457	2.2443393128176963	-5.816454634368386
C	-4.213875334876736	1.7878657047122226	-12.7413450353863
C	-5.108048983270609	1.173539105481319	-13.576810791550063
C	-5.2354682723855275	-0.24247386774295462	-13.576563693252847
C	-4.465234913579485	-1.0061822309462722	-12.740899266519264
H	-4.116635075895217	2.8699383447223146	-12.741707393587067
H	-5.725473258746926	1.7658650495884831	-14.244919182769468
H	-5.948643618007167	-0.7156387193143583	-14.244355580121503
H	-4.56273393369949	-2.088217837435663	-12.740843925543022
