84
101c PD long+short
C	-4.954591460496319	-0.276578032964115	8.391130605344066e-05
C	-4.825543360496319	1.158066737035885	-9.835869394655934e-05
C	-3.5423757704963195	1.7250049370358849	7.494130605344066e-05
C	-2.3897800804963194	0.940375637035885	-0.00013293869394655932
C	-2.5191962004963195	-0.49722037296411514	0.00013745130605344067
C	-3.79329817049632	-1.063485682964115	-8.716869394655933e-05
C	-1.0780626804963194	1.505259327035885	6.307130605344067e-05
C	0.04367269950368069	0.721163817035885	-5.729869394655933e-05
C	-0.08586595049631951	-0.716243902964115	6.846130605344067e-05
C	-1.3295692204963192	-1.287351362964115	-6.791869394655934e-05
N	1.3283593295036806	1.248295337035885	1.1891306053440671e-05
C	2.4962522095036808	0.494332297035885	-5.7158693946559325e-05
C	2.3675508095036806	-0.9317567229641148	4.987130605344067e-05
N	1.0837249495036807	-1.464574732964115	-5.618693946559329e-06
C	3.7467090095036806	1.065722647035885	5.3791306053440675e-05
C	4.92524786950368	0.27399157703588495	-9.473869394655933e-05
C	4.7965061495036805	-1.1504872029641149	0.00010736130605344067
C	3.4952428495036805	-1.718015302964115	-6.765869394655934e-05
C	6.2223354795036805	0.842416457035885	3.5311306053440676e-05
C	7.3452681295036815	0.04538188703588486	-1.259869394655933e-05
C	7.218139549503681	-1.360163412964115	1.929130605344067e-05
C	5.970389039503681	-1.942608452964115	-3.885869394655933e-05
H	1.4202316195036806	2.252035557035885	3.441306053440671e-06
H	0.9946566495036806	-2.468574222964115	-7.608693946559328e-06
H	-0.9752192104963195	2.587395067035885	-1.2418693946559328e-05
H	-3.4463069604963192	2.807792277035885	3.113060534406707e-07
H	-3.8920858604963198	-2.146033072964115	1.2031306053440672e-05
H	-1.4216521104963196	-2.3704525429641152	1.4131306053440672e-05
H	3.3922632795036805	-2.8002039729641153	1.390130605344067e-05
H	5.873252689503681	-3.0247037829641155	3.0113060534406707e-06
H	8.107786489503681	-1.9819314929641152	2.021306053440671e-06
H	8.33196222950368	0.49757385703588497	-5.618693946559329e-06
H	6.32137967950368	1.9243446570358849	-3.888693946559329e-06
H	3.8395293295036805	2.148832167035885	-5.098693946559329e-06
C	-6.011437620496318	1.949878307035885	3.8011306053440674e-05
C	-7.250291610496319	1.3666223570358849	-6.458693946559329e-06
C	-7.377602220496319	-0.049400412964115015	1.1913060534406708e-06
C	-6.262630080496319	-0.8441846929641152	-1.9808693946559332e-05
H	-5.91436498049632	3.031966057035885	7.013060534406708e-07
H	-8.143337540496319	1.983793767035885	-2.3686939465593295e-06
H	-8.366262280496318	-0.49773214296411483	1.4181306053440671e-05
H	-6.360101550496319	-1.926222782964115	-1.5008693946559329e-05
C	-0.45780809955155627	-2.484003446695264	3.500076649223221
C	-0.32875999955155594	-1.0493586766952634	3.4998943792232207
C	0.9544075904484433	-0.48242047669526367	3.500067679223221
C	2.1070032804484433	-1.2670497766952635	3.4998597992232208
C	1.9775871604484432	-2.704645786695264	3.5001301892232206
C	0.7034851904484429	-3.2709110966952637	3.4999055692232206
C	3.4187206804484433	-0.7021660866952636	3.5000558092232206
C	4.540456060448443	-1.4862615966952635	3.4999354392232207
C	4.410917410448444	-2.9236693166952636	3.5000611992232207
C	3.1672141404484435	-3.4947767766952635	3.499924819223221
N	5.825142690448444	-0.9591300766952636	3.5000046292232208
C	6.993035570448444	-1.7130931166952634	3.4999355792232207
C	6.864334170448443	-3.1391821366952635	3.500042609223221
N	5.580508310448443	-3.6720001466952636	3.4999871192232206
C	8.243492370448445	-1.1417027666952635	3.5000465292232206
C	9.422031230448445	-1.9334338366952635	3.499897999223221
C	9.293289510448444	-3.3579126166952635	3.500100099223221
C	7.992026210448443	-3.9254407166952636	3.4999250792232206
C	10.719118840448443	-1.3650089566952635	3.500028049223221
C	11.842051490448446	-2.1620435266952636	3.499980139223221
C	11.714922910448445	-3.5675888266952636	3.5000120292232206
C	10.467172400448446	-4.150033866695263	3.499953879223221
H	5.917014980448443	0.044610143304736685	3.4999961792232206
H	5.491440010448444	-4.675999636695264	3.4999851292232207
H	3.521564150448443	0.37996965330473664	3.4999803192232206
H	1.0504764004484435	0.6003668633047364	3.499993049223221
H	0.604697500448443	-4.353458486695263	3.500004769223221
H	3.075131250448443	-4.577877956695263	3.500006869223221
H	7.889046640448443	-5.007629386695263	3.500006639223221
H	10.370036050448444	-5.232129196695264	3.499995749223221
H	12.604569850448444	-4.189356906695264	3.499994759223221
H	12.828745590448444	-1.7098515566952635	3.4999871192232206
H	10.818163040448445	-0.28308075669526367	3.4999888492232207
H	8.336312690448445	-0.05859324669526332	3.499987639223221
C	-1.5146542595515555	-0.2575471066952636	3.5000307492232205
C	-2.7535082495515564	-0.8408030566952637	3.499986279223221
C	-2.8808188595515567	-2.256825826695264	3.499993929223221
C	-1.765846719551556	-3.051610106695264	3.4999729292232207
H	-1.417581619551557	0.8245406433047365	3.499993439223221
H	-3.646554179551556	-0.2236316466952636	3.499990369223221
H	-3.8694789195515558	-2.7051575566952635	3.5000069192232206
H	-1.8633181895515563	-4.133648196695263	3.499977729223221
