64
n07 TL90.0
C	-3.5657196157637823	-0.6134679337120004	-5.8874736739566285e-05
C	-3.5181841857637814	0.8433760062879996	6.364526326043372e-05
C	-2.2928646057637816	1.4899491862879997	-4.9634736739566285e-05
C	-1.0815394257637818	0.7644126662879995	8.224526326043371e-05
C	-1.128988525763782	-0.6936454137120004	-7.343473673956629e-05
C	-2.3851217757637815	-1.3386903637120005	4.2875263260433715e-05
N	0.08226043423621832	1.4268049662879996	-3.0854736739566286e-05
C	1.1972439342362182	0.6907830662879996	1.8065263260433714e-05
C	1.1500138542362182	-0.7679594937120005	-1.2314736739566287e-05
N	-0.010446895763781772	-1.4301323037120004	2.5115263260433716e-05
N	2.3770409242362183	1.3530770262879996	-4.014736739566287e-06
C	3.477185774236218	0.6181176562879995	1.1765263260433713e-05
C	3.430062854236218	-0.8425665637120004	-1.224736739566287e-06
N	2.284680544236218	-1.5049981937120005	-8.347367395662868e-07
C	4.757851194236219	1.2661586662879996	-2.2044736739566287e-05
C	5.900709544236218	0.5276232262879995	1.3895263260433713e-05
C	5.854470634236218	-0.9076866737120004	8.595263260433713e-06
C	4.666550334236218	-1.5714537037120004	-1.1334736739566288e-05
H	-2.3917793057637815	-2.4233098137120006	-4.5647367395662865e-06
H	4.604890024236218	-2.6535772537120006	3.345263260433713e-06
H	6.787049924236218	-1.4622622537120005	-8.134736739566288e-06
H	6.867017064236219	1.0211313862879996	1.4865263260433712e-05
H	4.765384334236218	2.3499959262879995	-4.814736739566287e-06
H	-2.228470095763782	2.5726589062879994	9.665263260433713e-06
C	-4.758306095763782	1.5661338662879996	-2.2594736739566287e-05
C	-5.951309845763783	0.9106566462879995	-2.624736739566287e-06
C	-5.998090685763783	-0.5213336937120004	5.645263260433713e-06
C	-4.850544045763781	-1.2534952437120004	1.8465263260433713e-05
H	-4.722225025763782	2.6509991062879994	3.195263260433713e-06
H	-6.880888335763782	1.4702931662879997	1.455263260433713e-06
H	-6.962218815763782	-1.0190983737120003	1.6252632604337131e-06
H	-4.885976285763782	-2.3383913737120006	-1.9347367395662867e-06
C	-3.5420684192918204	0.11503933048564835	-6.101606682653088
C	-3.541833204563791	0.11490910980257077	-4.643987450704029
C	-2.3387687141544045	0.07596552734062646	-3.9579960569095585
C	-1.1051936267774787	0.035786143557342	-4.643845947096823
C	-1.1053021512604588	0.0359454287710912	-6.102675878525094
C	-2.3391975293616976	0.07588688988696003	-6.788139676539556
N	0.03590288615445055	-0.001145857792190108	-3.944039930062223
C	1.1735804640903507	-0.03812897038476065	-4.643495734949062
C	1.173708861386276	-0.03810274273730007	-6.10300267928381
N	0.03594328002625986	-0.001203168647136783	-6.80248097580153
N	2.3306575004348513	-0.07567083985387103	-3.9432689377225776
C	3.453478668031307	-0.11213848862157687	-4.642144250616098
C	3.4537765172687025	-0.11213516131324301	-6.103588355462341
N	2.3310830962227778	-0.0756878382960583	-6.802836076567404
C	4.711780546983705	-0.15295483875803428	-3.952889960273907
C	5.877385563680553	-0.19083161566026233	-4.653953509757858
C	5.877743340526273	-0.19083792792486562	-6.0900079717543285
C	4.712600682266301	-0.15299217970618217	-6.7919706451985595
H	-2.3106717483773505	0.0750082788334815	-7.872404028133026
H	4.686098633500646	-0.15214649090711133	-7.875525119016595
H	6.827326484544168	-0.22164895870985896	-6.614031577451807
H	6.826670962274444	-0.22165068960523346	-4.129350856415644
H	4.684155801178965	-0.15207525347169543	-2.8693789753695604
H	-2.3095567543207904	0.07495784357968549	-2.8737670035295886
C	-4.804086071094442	0.15597384013661877	-3.9618491420386146
C	-5.9745769647106535	0.19395329527690727	-4.655691316312106
C	-5.974868642635478	0.19395449010645457	-6.088445550587956
C	-4.804786230284981	0.15595548884320057	-6.782986442579986
H	-4.803226559003564	0.15592013289430134	-2.8763844067329374
H	-6.921326186501834	0.22468498077579352	-4.1265120667668995
H	-6.921838805700242	0.22470145262709235	-6.617231766642996
H	-4.804996768604055	0.15598273461799136	-7.868460998646521
