64
n07 TS45.0
C	-3.5657196157637823	-0.6134679337120004	-5.8874736739566285e-05
C	-3.5181841857637814	0.8433760062879996	6.364526326043372e-05
C	-2.2928646057637816	1.4899491862879997	-4.9634736739566285e-05
C	-1.0815394257637818	0.7644126662879995	8.224526326043371e-05
C	-1.128988525763782	-0.6936454137120004	-7.343473673956629e-05
C	-2.3851217757637815	-1.3386903637120005	4.2875263260433715e-05
N	0.08226043423621832	1.4268049662879996	-3.0854736739566286e-05
C	1.1972439342362182	0.6907830662879996	1.8065263260433714e-05
C	1.1500138542362182	-0.7679594937120005	-1.2314736739566287e-05
N	-0.010446895763781772	-1.4301323037120004	2.5115263260433716e-05
N	2.3770409242362183	1.3530770262879996	-4.014736739566287e-06
C	3.477185774236218	0.6181176562879995	1.1765263260433713e-05
C	3.430062854236218	-0.8425665637120004	-1.224736739566287e-06
N	2.284680544236218	-1.5049981937120005	-8.347367395662868e-07
C	4.757851194236219	1.2661586662879996	-2.2044736739566287e-05
C	5.900709544236218	0.5276232262879995	1.3895263260433713e-05
C	5.854470634236218	-0.9076866737120004	8.595263260433713e-06
C	4.666550334236218	-1.5714537037120004	-1.1334736739566288e-05
H	-2.3917793057637815	-2.4233098137120006	-4.5647367395662865e-06
H	4.604890024236218	-2.6535772537120006	3.345263260433713e-06
H	6.787049924236218	-1.4622622537120005	-8.134736739566288e-06
H	6.867017064236219	1.0211313862879996	1.4865263260433712e-05
H	4.765384334236218	2.3499959262879995	-4.814736739566287e-06
H	-2.228470095763782	2.5726589062879994	9.665263260433713e-06
C	-4.758306095763782	1.5661338662879996	-2.2594736739566287e-05
C	-5.951309845763783	0.9106566462879995	-2.624736739566287e-06
C	-5.998090685763783	-0.5213336937120004	5.645263260433713e-06
C	-4.850544045763781	-1.2534952437120004	1.8465263260433713e-05
H	-4.722225025763782	2.6509991062879994	3.195263260433713e-06
H	-6.880888335763782	1.4702931662879997	1.455263260433713e-06
H	-6.962218815763782	-1.0190983737120003	1.6252632604337131e-06
H	-4.885976285763782	-2.3383913737120006	-1.9347367395662867e-06
C	-2.528228789765834	-0.6471394110516899	4.938892530206484
C	-2.480852178814416	0.8097096852220098	4.939147583967488
C	-1.6078218587069066	1.4677215663613967	5.790207739016138
C	-0.7578958321021354	0.753919541333413	6.663033248103638
C	-0.805199467501007	-0.7041432611886184	6.662843616858571
C	-1.7000154721542435	-1.3609200476559868	5.789973458485576
N	0.07176461587638922	1.4271612236912457	7.470252465059595
C	0.8534961274484286	0.7019598910755623	8.275171911919191
C	0.8062523756539298	-0.7567822248676028	8.275241375156108
N	-0.020990372184596907	-1.4297744990771544	7.470323479344565
N	1.6944079266410452	1.3752573267197619	9.093763468610714
C	2.465675864603409	0.6509764671455981	9.888148117950768
C	2.4184771889995837	-0.8097052930316858	9.888350161787267
N	1.6019248774574544	-1.4828139102462221	9.094068465893242
C	3.3778164465506886	1.3109833411130936	10.778345598765698
C	4.179252351210096	0.5835337602353046	11.603013655377499
C	4.132914587501557	-0.8517729299873084	11.60326369695052
C	3.2862719356330707	-1.526621117652632	10.778935210662294
H	-1.7149924140136217	-2.44526936925414	5.810120821507145
H	3.232364995520242	-2.608996416728313	10.760196873812315
H	4.787380223684449	-1.3973182634602825	12.275062198385822
H	4.867519184467312	1.0860697974661209	12.274613852457955
H	3.3934267300356438	2.394558339200358	10.75881364471229
H	-1.5520274213383962	2.55071052725161	5.810917291540889
C	-3.351208093337223	1.5204613818233934	4.046066461602566
C	-4.201396323601014	0.8538530698757172	3.2179833344860995
C	-4.248095520713203	-0.5781399210603511	3.2177838053789376
C	-3.443266174959909	-1.2991735685818577	4.04560264413184
H	-3.3153988583641154	2.6053354480886917	4.0466927789057765
H	-4.853682143522738	1.4044860004365216	2.5481805362565746
H	-4.934858889882413	-1.0849105312165845	2.5478193651448375
H	-3.478620520427261	-2.384072227694141	4.04543939738754
