64
n07 TS90.0anti
C	-3.5657196157637823	-0.6134679337120004	-5.8874736739566285e-05
C	-3.5181841857637814	0.8433760062879996	6.364526326043372e-05
C	-2.2928646057637816	1.4899491862879997	-4.9634736739566285e-05
C	-1.0815394257637818	0.7644126662879995	8.224526326043371e-05
C	-1.128988525763782	-0.6936454137120004	-7.343473673956629e-05
C	-2.3851217757637815	-1.3386903637120005	4.2875263260433715e-05
N	0.08226043423621832	1.4268049662879996	-3.0854736739566286e-05
C	1.1972439342362182	0.6907830662879996	1.8065263260433714e-05
C	1.1500138542362182	-0.7679594937120005	-1.2314736739566287e-05
N	-0.010446895763781772	-1.4301323037120004	2.5115263260433716e-05
N	2.3770409242362183	1.3530770262879996	-4.014736739566287e-06
C	3.477185774236218	0.6181176562879995	1.1765263260433713e-05
C	3.430062854236218	-0.8425665637120004	-1.224736739566287e-06
N	2.284680544236218	-1.5049981937120005	-8.347367395662868e-07
C	4.757851194236219	1.2661586662879996	-2.2044736739566287e-05
C	5.900709544236218	0.5276232262879995	1.3895263260433713e-05
C	5.854470634236218	-0.9076866737120004	8.595263260433713e-06
C	4.666550334236218	-1.5714537037120004	-1.1334736739566288e-05
H	-2.3917793057637815	-2.4233098137120006	-4.5647367395662865e-06
H	4.604890024236218	-2.6535772537120006	3.345263260433713e-06
H	6.787049924236218	-1.4622622537120005	-8.134736739566288e-06
H	6.867017064236219	1.0211313862879996	1.4865263260433712e-05
H	4.765384334236218	2.3499959262879995	-4.814736739566287e-06
H	-2.228470095763782	2.5726589062879994	9.665263260433713e-06
C	-4.758306095763782	1.5661338662879996	-2.2594736739566287e-05
C	-5.951309845763783	0.9106566462879995	-2.624736739566287e-06
C	-5.998090685763783	-0.5213336937120004	5.645263260433713e-06
C	-4.850544045763781	-1.2534952437120004	1.8465263260433713e-05
H	-4.722225025763782	2.6509991062879994	3.195263260433713e-06
H	-6.880888335763782	1.4702931662879997	1.455263260433713e-06
H	-6.962218815763782	-1.0190983737120003	1.6252632604337131e-06
H	-4.885976285763782	-2.3383913737120006	-1.9347367395662867e-06
C	-0.02358891962907439	-0.7284893323528219	-13.24485794710114
C	0.023581723114174443	0.7283664505596684	-13.244621539016368
C	0.045952314422561244	1.413995400260919	-12.040928279487547
C	0.023567881876853304	0.7285133445264002	-10.8066976529863
C	-0.023608899994780132	-0.7295535760820212	-10.806808378189588
C	-0.04596540362728393	-1.4146551709794237	-12.041348670856639
N	0.04638651080418074	1.427949526387459	-9.665005039493325
C	0.023643538471847424	0.728865836351759	-8.526725110617924
C	-0.023680443396790506	-0.7298736748268152	-8.526594720067635
N	-0.046412808911605444	-1.428984757218997	-9.664957104385298
N	0.04638484875445567	1.4287255619401995	-7.369040600546648
C	0.023693832330343657	0.7302209533892036	-6.245625985906092
C	-0.02371038239791544	-0.7304541338361209	-6.245325485718263
N	-0.04639824531697557	-1.4293359339225744	-7.3686089721408266
C	0.04609086517313212	1.4191137703987429	-4.986663663451122
C	0.02330870383394677	0.7184228168062142	-3.8204420008711875
C	-0.023279418692504446	-0.7168757453853223	-3.8200813425061337
C	-0.04603506288427135	-1.4184718123942437	-4.9858370841087
H	-0.08109742138151879	-2.49835014846928	-12.012807238406005
H	-0.08120613919968998	-2.5014553801255683	-5.012350456661963
H	-0.04026481277233694	-1.2406221051820256	-2.8699974234038335
H	0.04032876006336713	1.2427511965017208	-2.8706575015620484
H	0.0812286337661744	2.502054799459892	-5.01430456527651
H	0.08107133689464284	2.4976555981185653	-12.011701167812916
C	0.04580011393375141	1.4101403024873977	-14.50754356401561
C	0.023268063576252617	0.7166617431774462	-15.678649079473493
C	-0.02322654450523223	-0.7153378898468841	-15.678937784074538
C	-0.04577396723068226	-1.409510361281044	-14.508237130589848
H	0.08099271917114235	2.4950343878789694	-14.506684927470147
H	0.04043337831575817	1.2455606276354703	-16.62589800430476
H	-0.04037928972603631	-1.2438477239829384	-16.626405918779778
H	-0.08097227822714909	-2.4944140860868704	-14.50844627645862
