64
n07 cofacial 4.5A
C	-3.5657196157637823	-0.6134679337120004	-5.8874736739566285e-05
C	-3.5181841857637814	0.8433760062879996	6.364526326043372e-05
C	-2.2928646057637816	1.4899491862879997	-4.9634736739566285e-05
C	-1.0815394257637818	0.7644126662879995	8.224526326043371e-05
C	-1.128988525763782	-0.6936454137120004	-7.343473673956629e-05
C	-2.3851217757637815	-1.3386903637120005	4.2875263260433715e-05
N	0.08226043423621832	1.4268049662879996	-3.0854736739566286e-05
C	1.1972439342362182	0.6907830662879996	1.8065263260433714e-05
C	1.1500138542362182	-0.7679594937120005	-1.2314736739566287e-05
N	-0.010446895763781772	-1.4301323037120004	2.5115263260433716e-05
N	2.3770409242362183	1.3530770262879996	-4.014736739566287e-06
C	3.477185774236218	0.6181176562879995	1.1765263260433713e-05
C	3.430062854236218	-0.8425665637120004	-1.224736739566287e-06
N	2.284680544236218	-1.5049981937120005	-8.347367395662868e-07
C	4.757851194236219	1.2661586662879996	-2.2044736739566287e-05
C	5.900709544236218	0.5276232262879995	1.3895263260433713e-05
C	5.854470634236218	-0.9076866737120004	8.595263260433713e-06
C	4.666550334236218	-1.5714537037120004	-1.1334736739566288e-05
H	-2.3917793057637815	-2.4233098137120006	-4.5647367395662865e-06
H	4.604890024236218	-2.6535772537120006	3.345263260433713e-06
H	6.787049924236218	-1.4622622537120005	-8.134736739566288e-06
H	6.867017064236219	1.0211313862879996	1.4865263260433712e-05
H	4.765384334236218	2.3499959262879995	-4.814736739566287e-06
H	-2.228470095763782	2.5726589062879994	9.665263260433713e-06
C	-4.758306095763782	1.5661338662879996	-2.2594736739566287e-05
C	-5.951309845763783	0.9106566462879995	-2.624736739566287e-06
C	-5.998090685763783	-0.5213336937120004	5.645263260433713e-06
C	-4.850544045763781	-1.2534952437120004	1.8465263260433713e-05
H	-4.722225025763782	2.6509991062879994	3.195263260433713e-06
H	-6.880888335763782	1.4702931662879997	1.455263260433713e-06
H	-6.962218815763782	-1.0190983737120003	1.6252632604337131e-06
H	-4.885976285763782	-2.3383913737120006	-1.9347367395662867e-06
C	-3.565719675432091	-0.613458585891181	4.499941125253551
C	-3.51818424543209	0.843385354108819	4.500063645253551
C	-2.29286466543209	1.489958534108819	4.499950365253551
C	-1.0815394854320903	0.7644220141088189	4.500082245253551
C	-1.1289885854320905	-0.693636065891181	4.499926565253551
C	-2.38512183543209	-1.338681015891181	4.500042875253551
N	0.08226037456790983	1.426814314108819	4.499969145253551
C	1.1972438745679097	0.690792414108819	4.500018065253551
C	1.1500137945679096	-0.767950145891181	4.499987685253551
N	-0.01044695543209026	-1.430122955891181	4.500025115253551
N	2.3770408645679098	1.353086374108819	4.499995985253551
C	3.4771857145679097	0.6181270041088189	4.500011765253551
C	3.4300627945679096	-0.842557215891181	4.499998775253551
N	2.2846804845679096	-1.504988845891181	4.499999165253551
C	4.75785113456791	1.266168014108819	4.499977955253551
C	5.900709484567909	0.5276325741088189	4.5000138952535504
C	5.85447057456791	-0.907677325891181	4.500008595253551
C	4.66655027456791	-1.571444355891181	4.499988665253551
H	-2.39177936543209	-2.4233004658911814	4.499995435253551
H	4.604889964567909	-2.6535679058911814	4.500003345253551
H	6.787049864567909	-1.462252905891181	4.499991865253551
H	6.86701700456791	1.021140734108819	4.500014865253551
H	4.76538427456791	2.3500052741088187	4.4999951852535505
H	-2.2284701554320905	2.5726682541088186	4.500009665253551
C	-4.7583061554320905	1.566143214108819	4.499977405253551
C	-5.951309905432091	0.9106659941088189	4.4999973752535505
C	-5.9980907454320915	-0.521324345891181	4.500005645253551
C	-4.85054410543209	-1.253485895891181	4.500018465253551
H	-4.722225085432091	2.6510084541088186	4.500003195253551
H	-6.88088839543209	1.470302514108819	4.5000014552535506
H	-6.96221887543209	-1.0190890258911809	4.500001625253551
H	-4.88597634543209	-2.3383820258911814	4.499998065253551
