64
107_H_capped_F PD long
C	-5.1846957047265345	-0.29804649702212827	-2.665226360778388e-05
C	-5.382079424726534	1.0889643329778718	2.8047736392216117e-05
C	-4.320722234726534	1.9760481729778716	-4.943226360778389e-05
C	-3.0354790047265343	1.4326336429778717	3.976773639221611e-05
C	-2.8172341947265345	0.030625462977871762	-3.053226360778389e-05
C	-3.9143570347265344	-0.8377220670221283	5.997736392216116e-06
N	-1.8109405347265342	2.070347782977872	-1.1122263607783884e-05
C	-0.7900926947265343	1.1252726429778717	-2.362226360778388e-05
C	-1.3851987747265344	-0.17263361702212823	2.8807736392216116e-05
C	0.5846897152734657	1.3183670429778718	3.1257736392216115e-05
C	1.3852623852734656	0.1736321129778718	-5.839226360778389e-05
C	0.7900010352734657	-1.1242273070221283	5.259773639221612e-05
C	-0.5847157147265343	-1.3173201870221283	-2.129226360778388e-05
N	1.8105400552734656	-2.069515247022128	1.0437736392216116e-05
C	3.0351724652734657	-1.4321213570221283	-8.095226360778388e-05
C	2.817358275273466	-0.03001252702212824	0.00010229773639221613
C	3.915002465273466	0.8377380029778717	-6.139226360778387e-05
C	5.1850950252734656	0.29741311297787176	4.9957736392216116e-05
C	5.3819024352734655	-1.0896808070221282	-7.116226360778388e-05
C	4.320105575273466	-1.9761900370221281	6.608773639221612e-05
H	-1.6761685847265344	3.066679222977872	9.827736392216115e-06
H	1.6754683952734657	-3.065802037022128	-1.6112263607783884e-05
H	-4.514936374726534	3.0423989529778717	7.257736392216117e-06
F	-6.642978474726534	1.5595171629778717	5.827736392216116e-06
F	-6.268099174726534	-1.1026863770221282	3.767736392216116e-06
H	-3.800558524726534	-1.9159270870221283	6.7677363922161165e-06
H	-1.0203931647265343	-2.3114229070221284	7.987736392216116e-06
H	1.0203710552734657	2.312472272977872	-9.252263607783883e-06
H	3.801954525273466	1.9160219929778717	1.7527736392216116e-05
F	6.268840285273466	1.1015992229778717	-1.2842263607783885e-05
F	6.642559175273465	-1.5608690270221282	1.4427736392216115e-05
H	4.513588515273465	-3.0426708970221283	-3.462263607783884e-06
C	-1.0926068032462852	-0.7387681213465177	3.4999740007659725
C	-1.2899905232462847	0.6482427086534823	3.5000287007659727
C	-0.22863333324628496	1.535326548653482	3.4999512207659724
C	1.056609896753715	0.9919120186534822	3.5000404207659725
C	1.2748547067537148	-0.41009616134651766	3.4999701207659726
C	0.1777318667537148	-1.2784436913465178	3.5000066507659726
N	2.281148366753715	1.6296261586534821	3.4999895307659727
C	3.3019962067537145	0.6845510186534822	3.4999770307659728
C	2.7068901267537147	-0.6133552413465176	3.5000294607659725
C	4.676778616753714	0.8776454186534823	3.5000319107659728
C	5.477351286753715	-0.26708951134651765	3.4999422607659727
C	4.882089936753714	-1.5649489313465177	3.5000532507659727
C	3.507373186753715	-1.7580418113465177	3.499979360765973
N	5.9026289567537145	-2.5102368713465175	3.5000110907659727
C	7.127261366753715	-1.872842981346518	3.4999197007659726
C	6.909447176753715	-0.4707341513465177	3.5001029507659727
C	8.007091366753716	0.39701637865348227	3.4999392607659727
C	9.277183926753715	-0.14330851134651768	3.500050610765973
C	9.473991336753716	-1.5304024313465179	3.4999294907659726
C	8.412194476753715	-2.4169116613465174	3.5000667407659725
H	2.4159203167537147	2.6259575986534824	3.5000104807659724
H	5.767557296753715	-3.5065236613465176	3.4999845407659724
H	-0.42284747324628463	2.6016773286534822	3.5000079107659725
F	-2.550889573246285	1.118795538653482	3.5000064807659728
F	-2.176010273246285	-1.5434080013465177	3.5000044207659724
H	0.29153037675371535	-2.3566487113465175	3.500007420765973
H	3.071695736753715	-2.752144531346518	3.5000086407659725
H	5.112459956753715	1.8717506486534823	3.4999914007659725
H	7.894043426753715	1.475300368653482	3.5000181807659727
F	10.360929186753715	0.6608775986534823	3.4999878107659725
F	10.734648076753714	-2.0015906513465174	3.5000150807659725
H	8.605677416753714	-3.483392521346518	3.499997190765973
