64
107_H_capped_F TL90.0
C	-5.1846957047265345	-0.29804649702212827	-2.665226360778388e-05
C	-5.382079424726534	1.0889643329778718	2.8047736392216117e-05
C	-4.320722234726534	1.9760481729778716	-4.943226360778389e-05
C	-3.0354790047265343	1.4326336429778717	3.976773639221611e-05
C	-2.8172341947265345	0.030625462977871762	-3.053226360778389e-05
C	-3.9143570347265344	-0.8377220670221283	5.997736392216116e-06
N	-1.8109405347265342	2.070347782977872	-1.1122263607783884e-05
C	-0.7900926947265343	1.1252726429778717	-2.362226360778388e-05
C	-1.3851987747265344	-0.17263361702212823	2.8807736392216116e-05
C	0.5846897152734657	1.3183670429778718	3.1257736392216115e-05
C	1.3852623852734656	0.1736321129778718	-5.839226360778389e-05
C	0.7900010352734657	-1.1242273070221283	5.259773639221612e-05
C	-0.5847157147265343	-1.3173201870221283	-2.129226360778388e-05
N	1.8105400552734656	-2.069515247022128	1.0437736392216116e-05
C	3.0351724652734657	-1.4321213570221283	-8.095226360778388e-05
C	2.817358275273466	-0.03001252702212824	0.00010229773639221613
C	3.915002465273466	0.8377380029778717	-6.139226360778387e-05
C	5.1850950252734656	0.29741311297787176	4.9957736392216116e-05
C	5.3819024352734655	-1.0896808070221282	-7.116226360778388e-05
C	4.320105575273466	-1.9761900370221281	6.608773639221612e-05
H	-1.6761685847265344	3.066679222977872	9.827736392216115e-06
H	1.6754683952734657	-3.065802037022128	-1.6112263607783884e-05
H	-4.514936374726534	3.0423989529778717	7.257736392216117e-06
F	-6.642978474726534	1.5595171629778717	5.827736392216116e-06
F	-6.268099174726534	-1.1026863770221282	3.767736392216116e-06
H	-3.800558524726534	-1.9159270870221283	6.7677363922161165e-06
H	-1.0203931647265343	-2.3114229070221284	7.987736392216116e-06
H	1.0203710552734657	2.312472272977872	-9.252263607783883e-06
H	3.801954525273466	1.9160219929778717	1.7527736392216116e-05
F	6.268840285273466	1.1015992229778717	-1.2842263607783885e-05
F	6.642559175273465	-1.5608690270221282	1.4427736392216115e-05
H	4.513588515273465	-3.0426708970221283	-3.462263607783884e-06
C	-5.093508492021775	0.5485979656182708	-6.590288366493677
C	-5.4363071640433125	0.5854633446593619	-5.23238947749684
C	-4.481558355489714	0.48271210104374235	-4.236752131643481
C	-3.1532061231775215	0.3395550584114813	-4.63941318971664
C	-2.7881871630549586	0.30031218113972546	-6.009989307323909
C	-3.7802819348391083	0.4071268784103952	-6.990828001751661
N	-2.010600138373476	0.21654431696057683	-3.8742375808311054
C	-0.9008365413713016	0.09703218239559507	-4.70456218078913
C	-1.350938519923618	0.1454567169402008	-6.058731735278702
C	0.4376170630576571	-0.04717828836425737	-4.36536103974899
C	1.3508970388247619	-0.14545097994766368	-5.4177853039608825
C	0.9006303129599134	-0.09706760031320186	-6.771924914695107
C	-0.4377565105602715	0.047154797891364626	-7.111117513347645
N	2.010114463698582	-0.21651980618742805	-7.60249416069507
C	3.152851744609594	-0.33950395438299896	-6.837626900909042
C	2.7882356554922128	-0.30041807068414006	-5.466904599579515
C	3.7809229772280366	-0.407168691880379	-4.486603644214467
C	5.093966950958583	-0.5486992694695002	-4.8878152202898235
C	5.436211880412031	-0.5854382047334256	-6.245858435029695
C	4.4809608654718	-0.48269298772021	-7.240971556466237
H	-1.9834534177423424	0.21359946650851158	-2.8692031532153304
H	1.9826673156841845	-0.21353696646262801	-8.607516289158724
H	-4.787083923286501	0.5155610588672752	-3.1973300832008564
F	-6.732844091183992	0.725126420757525	-4.89956429464398
F	-6.078823394201097	0.6546885969171081	-7.506316607168493
H	-3.5529939311509224	0.382646537240596	-8.050647345936161
H	-0.7626009372716948	0.08211202047765366	-8.146158164834725
H	0.7624662704761265	-0.08212473090067267	-3.330317476138138
H	3.554359995531677	-0.38284658851399944	-3.426625410159814
F	6.079671503276805	-0.6547992999394543	-3.972201540233299
F	6.732570139015995	-0.7251457742034881	-6.579341301878821
H	4.785778844354978	-0.5154528018258336	-8.280601236681228
