64
107_H_capped_F PD short
C	-5.1846957047265345	-0.29804649702212827	-2.665226360778388e-05
C	-5.382079424726534	1.0889643329778718	2.8047736392216117e-05
C	-4.320722234726534	1.9760481729778716	-4.943226360778389e-05
C	-3.0354790047265343	1.4326336429778717	3.976773639221611e-05
C	-2.8172341947265345	0.030625462977871762	-3.053226360778389e-05
C	-3.9143570347265344	-0.8377220670221283	5.997736392216116e-06
N	-1.8109405347265342	2.070347782977872	-1.1122263607783884e-05
C	-0.7900926947265343	1.1252726429778717	-2.362226360778388e-05
C	-1.3851987747265344	-0.17263361702212823	2.8807736392216116e-05
C	0.5846897152734657	1.3183670429778718	3.1257736392216115e-05
C	1.3852623852734656	0.1736321129778718	-5.839226360778389e-05
C	0.7900010352734657	-1.1242273070221283	5.259773639221612e-05
C	-0.5847157147265343	-1.3173201870221283	-2.129226360778388e-05
N	1.8105400552734656	-2.069515247022128	1.0437736392216116e-05
C	3.0351724652734657	-1.4321213570221283	-8.095226360778388e-05
C	2.817358275273466	-0.03001252702212824	0.00010229773639221613
C	3.915002465273466	0.8377380029778717	-6.139226360778387e-05
C	5.1850950252734656	0.29741311297787176	4.9957736392216116e-05
C	5.3819024352734655	-1.0896808070221282	-7.116226360778388e-05
C	4.320105575273466	-1.9761900370221281	6.608773639221612e-05
H	-1.6761685847265344	3.066679222977872	9.827736392216115e-06
H	1.6754683952734657	-3.065802037022128	-1.6112263607783884e-05
H	-4.514936374726534	3.0423989529778717	7.257736392216117e-06
F	-6.642978474726534	1.5595171629778717	5.827736392216116e-06
F	-6.268099174726534	-1.1026863770221282	3.767736392216116e-06
H	-3.800558524726534	-1.9159270870221283	6.7677363922161165e-06
H	-1.0203931647265343	-2.3114229070221284	7.987736392216116e-06
H	1.0203710552734657	2.312472272977872	-9.252263607783883e-06
H	3.801954525273466	1.9160219929778717	1.7527736392216116e-05
F	6.268840285273466	1.1015992229778717	-1.2842263607783885e-05
F	6.642559175273465	-1.5608690270221282	1.4427736392216115e-05
H	4.513588515273465	-3.0426708970221283	-3.462263607783884e-06
C	-5.39719003957419	-2.2710068354258777	3.499978244474075
C	-5.59457375957419	-0.8839960054258776	3.500032944474075
C	-4.53321656957419	0.0030878345741222053	3.499955464474075
C	-3.2479733395741905	-0.5403266954258777	3.500044664474075
C	-3.0297285295741907	-1.9423348754258778	3.499974364474075
C	-4.12685136957419	-2.8106824054258777	3.500010894474075
N	-2.0234348695741904	0.0973874445741224	3.499993774474075
C	-1.0025870295741903	-0.8476876954258777	3.499981274474075
C	-1.5976931095741904	-2.1455939554258774	3.500033704474075
C	0.3721953804258097	-0.6545932954258776	3.500036154474075
C	1.1727680504258096	-1.7993282254258778	3.499946504474075
C	0.5775067004258095	-3.0971876454258775	3.500057494474075
C	-0.7972100495741904	-3.2902805254258776	3.499983604474075
N	1.5980457204258096	-4.042475585425878	3.500015334474075
C	2.8226781304258095	-3.4050816954258774	3.499923944474075
C	2.6048639404258096	-2.0029728654258774	3.500107194474075
C	3.7025081304258096	-1.1352223354258777	3.499943504474075
C	4.97260069042581	-1.6755472254258776	3.500054854474075
C	5.16940810042581	-3.0626411454258773	3.499933734474075
C	4.10761124042581	-3.9491503754258774	3.500070984474075
H	-1.8886629195741904	1.0937188845741224	3.500014724474075
H	1.4629740604258097	-5.038762375425878	3.499988784474075
H	-4.72743070957419	1.0694386145741221	3.500012154474075
F	-6.85547280957419	-0.4134431754258777	3.500010724474075
F	-6.48059350957419	-3.0756467154258775	3.500008664474075
H	-4.01305285957419	-3.8888874254258776	3.500011664474075
H	-1.2328874995741903	-4.284383245425878	3.500012884474075
H	0.8078767204258096	0.33951193457412254	3.499995644474075
H	3.5894601904258097	-0.05693834542587772	3.500022424474075
F	6.05634595042581	-0.8713611154258777	3.499992054474075
F	6.43006484042581	-3.5338293654258774	3.500019324474075
H	4.301094180425809	-5.015631235425878	3.500001434474075
