64
107_H_capped_F cofacial 3.5A
C	-5.1846957047265345	-0.29804649702212827	-2.665226360778388e-05
C	-5.382079424726534	1.0889643329778718	2.8047736392216117e-05
C	-4.320722234726534	1.9760481729778716	-4.943226360778389e-05
C	-3.0354790047265343	1.4326336429778717	3.976773639221611e-05
C	-2.8172341947265345	0.030625462977871762	-3.053226360778389e-05
C	-3.9143570347265344	-0.8377220670221283	5.997736392216116e-06
N	-1.8109405347265342	2.070347782977872	-1.1122263607783884e-05
C	-0.7900926947265343	1.1252726429778717	-2.362226360778388e-05
C	-1.3851987747265344	-0.17263361702212823	2.8807736392216116e-05
C	0.5846897152734657	1.3183670429778718	3.1257736392216115e-05
C	1.3852623852734656	0.1736321129778718	-5.839226360778389e-05
C	0.7900010352734657	-1.1242273070221283	5.259773639221612e-05
C	-0.5847157147265343	-1.3173201870221283	-2.129226360778388e-05
N	1.8105400552734656	-2.069515247022128	1.0437736392216116e-05
C	3.0351724652734657	-1.4321213570221283	-8.095226360778388e-05
C	2.817358275273466	-0.03001252702212824	0.00010229773639221613
C	3.915002465273466	0.8377380029778717	-6.139226360778387e-05
C	5.1850950252734656	0.29741311297787176	4.9957736392216116e-05
C	5.3819024352734655	-1.0896808070221282	-7.116226360778388e-05
C	4.320105575273466	-1.9761900370221281	6.608773639221612e-05
H	-1.6761685847265344	3.066679222977872	9.827736392216115e-06
H	1.6754683952734657	-3.065802037022128	-1.6112263607783884e-05
H	-4.514936374726534	3.0423989529778717	7.257736392216117e-06
F	-6.642978474726534	1.5595171629778717	5.827736392216116e-06
F	-6.268099174726534	-1.1026863770221282	3.767736392216116e-06
H	-3.800558524726534	-1.9159270870221283	6.7677363922161165e-06
H	-1.0203931647265343	-2.3114229070221284	7.987736392216116e-06
H	1.0203710552734657	2.312472272977872	-9.252263607783883e-06
H	3.801954525273466	1.9160219929778717	1.7527736392216116e-05
F	6.268840285273466	1.1015992229778717	-1.2842263607783885e-05
F	6.642559175273465	-1.5608690270221282	1.4427736392216115e-05
H	4.513588515273465	-3.0426708970221283	-3.462263607783884e-06
C	-5.1846953320157665	-0.2980378504491681	3.4999733477256916
C	-5.382079052015766	1.0889729795508318	3.5000280477256913
C	-4.320721862015766	1.9760568195508317	3.4999505677256915
C	-3.0354786320157663	1.4326422895508317	3.5000397677256916
C	-2.8172338220157664	0.030634109550831942	3.4999694677256916
C	-3.9143566620157664	-0.8377134204491681	3.5000059977256917
N	-1.810940162015766	2.070356429550832	3.4999888777256913
C	-0.7900923220157662	1.1252812895508317	3.4999763777256914
C	-1.3851984020157662	-0.17262497044916805	3.5000288077256916
C	0.5846900879842338	1.3183756895508318	3.5000312577256913
C	1.3852627579842338	0.17364075955083197	3.4999416077256913
C	0.7900014079842338	-1.1242186604491682	3.5000525977256913
C	-0.5847153420157661	-1.3173115404491682	3.4999787077256914
N	1.8105404279842339	-2.069506600449168	3.5000104377256913
C	3.0351728379842338	-1.4321127104491682	3.4999190477256916
C	2.817358647984234	-0.03000388044916806	3.5001022977256913
C	3.915002837984234	0.8377466495508319	3.4999386077256913
C	5.185095397984234	0.29742175955083194	3.5000499577256914
C	5.3819028079842335	-1.0896721604491681	3.4999288377256916
C	4.320105947984234	-1.976181390449168	3.5000660877256915
H	-1.6761682120157662	3.066687869550832	3.5000098277256915
H	1.675468767984234	-3.065793390449168	3.4999838877256915
H	-4.514936002015766	3.042407599550832	3.5000072577256915
F	-6.642978102015766	1.5595258095508318	3.5000058277256914
F	-6.268098802015766	-1.1026777304491682	3.5000037677256914
H	-3.800558152015766	-1.9159184404491683	3.5000067677256914
H	-1.020392792015766	-2.311414260449168	3.5000079877256915
H	1.020371427984234	2.3124809195508322	3.4999907477256915
H	3.801954897984234	1.9160306395508317	3.5000175277256913
F	6.268840657984234	1.1016078695508318	3.4999871577256916
F	6.642559547984233	-1.560860380449168	3.5000144277256915
H	4.513588887984233	-3.042662250449168	3.4999965377256914
