56
n08 PD short
C	-5.408377402149585	-0.5547426660371955	3.7975733997221668e-06
C	-5.369547422149585	0.8535897639628045	-1.8724266002778336e-06
C	-4.161065952149586	1.5190816539628045	2.137757339972217e-05
C	-2.948286552149585	0.8032725739628046	-6.833242660027783e-05
C	-2.9881175721495854	-0.6374958660371954	6.712757339972216e-05
C	-4.238315992149586	-1.2856513860371954	-2.227242660027783e-05
N	-1.7605373721495856	1.5239652739628045	4.660757339972216e-05
C	-0.7301398521495854	0.7458498339628046	-9.108242660027784e-05
C	-0.7702939821495854	-0.7026918560371955	9.666757339972217e-05
N	-1.8420761321495855	-1.4226342960371954	-5.2622426600277834e-05
C	0.7705293378504146	0.7040302539628045	5.299757339972216e-05
C	0.7299795878504145	-0.7444995260371954	-5.579242660027783e-05
N	1.8427159478504145	1.4234369039628045	-2.0792426600277832e-05
C	2.988480947850414	0.6377271939628045	-7.612426600277834e-06
C	2.947938187850415	-0.8030222060371954	6.757573399722167e-06
N	1.7599431178504144	-1.5231239660371956	1.774757339972217e-05
C	4.239210337850415	1.2849313039628045	-2.752426600277833e-06
C	5.408761967850415	0.5531280839628046	1.2787573399722167e-05
C	5.369070547850415	-0.8551792260371955	3.0975733997221667e-06
C	4.160133417850415	-1.5197546260371955	-4.902426600277833e-06
H	-4.104155802149585	2.6017860839628044	4.247573399722167e-06
H	-6.296829582149585	1.4168050339628044	-5.572426600277833e-06
H	-6.365119092149585	-1.0663086260371955	8.557573399722167e-06
H	-4.2405259921495855	-2.3698256460371954	-6.424266002778333e-07
H	4.102122207850415	-2.6023974160371957	-1.7524266002778335e-06
H	6.295981737850415	-1.4190258860371954	1.4575733997221665e-06
H	6.365852517850414	1.0640157739628044	-7.952426600277835e-06
H	4.242522217850415	2.3691071539628044	8.497573399722165e-06
C	-5.458357707945694	-2.347585461670361	3.500003343593383
C	-5.419527727945694	-0.939253031670361	3.499997673593383
C	-4.211046257945695	-0.27376114167036103	3.500020923593383
C	-2.9982668579456937	-0.9895702216703609	3.499931213593383
C	-3.038097877945694	-2.430338661670361	3.500066673593383
C	-4.288296297945695	-3.078494181670361	3.499977273593383
N	-1.8105176779456946	-0.26887752167036105	3.500046153593383
C	-0.7801201579456943	-1.0469929616703608	3.499908463593383
C	-0.8202742879456943	-2.495534651670361	3.500096213593383
N	-1.8920564379456946	-3.215477091670361	3.499946923593383
C	0.7205490320543056	-1.088812541670361	3.500052543593383
C	0.6799992820543056	-2.537342321670361	3.499943753593383
N	1.7927356420543055	-0.369405891670361	3.499978753593383
C	2.9385006420543056	-1.1551156016703608	3.499991933593383
C	2.8979578820543064	-2.595865001670361	3.500006303593383
N	1.7099628120543053	-3.3159667616703614	3.500017293593383
C	4.189230032054306	-0.507911491670361	3.499996793593383
C	5.358781662054306	-1.2397147116703608	3.500012333593383
C	5.319090242054306	-2.648022021670361	3.500002643593383
C	4.110153112054306	-3.312597421670361	3.499994643593383
H	-4.154136107945694	0.8089432883296389	3.500003793593383
H	-6.346809887945694	-0.37603776167036107	3.499993973593383
H	-6.415099397945694	-2.859151421670361	3.500008103593383
H	-4.2905062979456945	-4.162668441670361	3.499998903593383
H	4.052141902054306	-4.395240211670361	3.499997793593383
H	6.246001432054306	-3.211868681670361	3.500001003593383
H	6.315872212054305	-0.7288270216703611	3.499991593593383
H	4.192541912054306	0.5762643583296388	3.500008043593383
