72
111c_H_capped_F cofacial 3.5A
C	-6.1111333002350845	-0.5366961754779596	1.0896864831839039e-06
C	-6.069277310235084	0.8925486645220404	-1.6980313516816095e-05
C	-4.877454180235084	1.5441457945220405	1.4579686483183904e-05
C	-3.6380620602350846	0.8328070145220404	-1.3790313516816095e-05
C	-3.6805673102350847	-0.6192284954779597	1.9529686483183906e-05
C	-4.959441910235085	-1.2568467254779594	3.6996864831839037e-06
C	-2.4164299202350845	1.4825558545220405	1.1209686483183904e-05
C	-1.2007999402350846	0.7619829745220404	-2.4020313516816096e-05
C	-1.2433083002350844	-0.6912557854779595	2.9649686483183904e-05
C	-2.499066740235085	-1.3393980754779595	-3.48503135168161e-05
C	0.04112694976491549	1.4070256645220405	3.25996864831839e-05
C	1.2432104797649155	0.6904642945220404	-5.40103135168161e-05
C	1.2008463897649155	-0.7627782954779594	5.10396864831839e-05
C	-0.04115160023508452	-1.4078015954779595	-3.40103135168161e-05
C	2.4987919597649153	1.3388694145220403	2.8968648318390377e-07
C	3.6803961697649155	0.6189420745220404	-1.7590313516816095e-05
C	3.638215629764915	-0.8331025054779597	-1.7010313516816097e-05
C	2.4166711697649155	-1.4830962554779594	3.82296864831839e-05
C	4.959058559764916	1.2569727045220405	-1.0550313516816096e-05
C	6.110972449764915	0.5371724645220405	1.7299686483183905e-05
C	6.069471309764916	-0.8920825554779594	-1.0550313516816096e-05
C	4.877846229764915	-1.5440389154779597	1.7969686483183904e-05
F	-4.851208910235084	2.8875391645220407	-2.8310313516816097e-05
F	-7.2309642302350845	1.5520268245220405	3.5289686483183904e-05
F	-7.309442990235084	-1.1270292954779597	-3.77403135168161e-05
F	-5.011734180235084	-2.599459995477959	3.20596864831839e-05
H	-2.5371764302350845	-2.4224650754779598	-5.370313516816096e-06
H	-0.07299342023508451	-2.4932702854779594	9.796864831839039e-07
H	2.3914429397649153	-2.5665503654779593	-7.850313516816096e-06
F	4.852049429764916	-2.88743534547796	-3.0310313516816095e-05
F	7.231359319764915	-1.5512162654779598	2.6029686483183905e-05
F	7.309098689764916	1.1278622545220405	-2.8210313516816094e-05
F	5.010900089764916	2.5996090245220405	2.9459686483183904e-05
H	2.5366629297649155	2.4219238545220403	-9.650313516816096e-06
H	0.07296688976491547	2.4924589345220403	-2.5403135168160963e-06
H	-2.3909652002350845	2.5659838745220407	1.1529686483183905e-05
C	-6.111133123327326	-0.5366956665539865	3.500001089686442
C	-6.069277133327326	0.8925491734460135	3.499983019686442
C	-4.877454003327325	1.5441463034460137	3.5000145796864417
C	-3.6380618833273264	0.8328075234460135	3.499986209686442
C	-3.6805671333273264	-0.6192279865539866	3.500019529686442
C	-4.959441733327326	-1.2568462165539862	3.500003699686442
C	-2.4164297433273263	1.4825563634460137	3.5000112096864417
C	-1.2007997633273262	0.7619834834460135	3.499975979686442
C	-1.243308123327326	-0.6912552765539864	3.500029649686442
C	-2.4990665633273266	-1.3393975665539863	3.499965149686442
C	0.04112712667267387	1.4070261734460137	3.500032599686442
C	1.243210656672674	0.6904648034460135	3.499945989686442
C	1.200846566672674	-0.7627777865539863	3.5000510396864417
C	-0.04115142332732614	-1.4078010865539863	3.4999659896864417
C	2.4987921366726735	1.3388699234460135	3.500000289686442
C	3.6803963466726737	0.6189425834460135	3.499982409686442
C	3.6382158066726733	-0.8331019965539866	3.499982989686442
C	2.4166713466726737	-1.4830957465539862	3.500038229686442
C	4.959058736672675	1.2569732134460136	3.499989449686442
C	6.110972626672674	0.5371729734460136	3.500017299686442
C	6.069471486672675	-0.8920820465539864	3.499989449686442
C	4.877846406672674	-1.5440384065539865	3.500017969686442
F	-4.851208733327326	2.887539673446014	3.4999716896864417
F	-7.230964053327326	1.5520273334460137	3.500035289686442
F	-7.309442813327325	-1.1270287865539865	3.4999622596864417
F	-5.011734003327326	-2.599459486553986	3.500032059686442
H	-2.5371762533273263	-2.4224645665539866	3.4999946296864417
H	-0.07299324332732614	-2.493269776553986	3.5000009796864417
H	2.3914431166726735	-2.566549856553986	3.4999921496864417
F	4.852049606672675	-2.887434836553987	3.499969689686442
F	7.231359496672674	-1.5512157565539866	3.500026029686442
F	7.309098866672675	1.1278627634460137	3.499971789686442
F	5.0109002666726745	2.5996095334460136	3.500029459686442
H	2.5366631066726737	2.4219243634460135	3.499990349686442
H	0.07296706667267384	2.4924594434460134	3.499997459686442
H	-2.3909650233273263	2.565984383446014	3.500011529686442
