72
111c_H_capped_F cofacial 5.0A
C	-6.1111333002350845	-0.5366961754779596	1.0896864831839039e-06
C	-6.069277310235084	0.8925486645220404	-1.6980313516816095e-05
C	-4.877454180235084	1.5441457945220405	1.4579686483183904e-05
C	-3.6380620602350846	0.8328070145220404	-1.3790313516816095e-05
C	-3.6805673102350847	-0.6192284954779597	1.9529686483183906e-05
C	-4.959441910235085	-1.2568467254779594	3.6996864831839037e-06
C	-2.4164299202350845	1.4825558545220405	1.1209686483183904e-05
C	-1.2007999402350846	0.7619829745220404	-2.4020313516816096e-05
C	-1.2433083002350844	-0.6912557854779595	2.9649686483183904e-05
C	-2.499066740235085	-1.3393980754779595	-3.48503135168161e-05
C	0.04112694976491549	1.4070256645220405	3.25996864831839e-05
C	1.2432104797649155	0.6904642945220404	-5.40103135168161e-05
C	1.2008463897649155	-0.7627782954779594	5.10396864831839e-05
C	-0.04115160023508452	-1.4078015954779595	-3.40103135168161e-05
C	2.4987919597649153	1.3388694145220403	2.8968648318390377e-07
C	3.6803961697649155	0.6189420745220404	-1.7590313516816095e-05
C	3.638215629764915	-0.8331025054779597	-1.7010313516816097e-05
C	2.4166711697649155	-1.4830962554779594	3.82296864831839e-05
C	4.959058559764916	1.2569727045220405	-1.0550313516816096e-05
C	6.110972449764915	0.5371724645220405	1.7299686483183905e-05
C	6.069471309764916	-0.8920825554779594	-1.0550313516816096e-05
C	4.877846229764915	-1.5440389154779597	1.7969686483183904e-05
F	-4.851208910235084	2.8875391645220407	-2.8310313516816097e-05
F	-7.2309642302350845	1.5520268245220405	3.5289686483183904e-05
F	-7.309442990235084	-1.1270292954779597	-3.77403135168161e-05
F	-5.011734180235084	-2.599459995477959	3.20596864831839e-05
H	-2.5371764302350845	-2.4224650754779598	-5.370313516816096e-06
H	-0.07299342023508451	-2.4932702854779594	9.796864831839039e-07
H	2.3914429397649153	-2.5665503654779593	-7.850313516816096e-06
F	4.852049429764916	-2.88743534547796	-3.0310313516816095e-05
F	7.231359319764915	-1.5512162654779598	2.6029686483183905e-05
F	7.309098689764916	1.1278622545220405	-2.8210313516816094e-05
F	5.010900089764916	2.5996090245220405	2.9459686483183904e-05
H	2.5366629297649155	2.4219238545220403	-9.650313516816096e-06
H	0.07296688976491547	2.4924589345220403	-2.5403135168160963e-06
H	-2.3909652002350845	2.5659838745220407	1.1529686483183905e-05
C	-6.111133047509715	-0.5366954484437123	5.000001089686425
C	-6.069277057509715	0.8925493915562877	4.999983019686424
C	-4.877453927509714	1.5441465215562877	5.000014579686424
C	-3.6380618075097155	0.8328077415562877	4.9999862096864245
C	-3.6805670575097156	-0.6192277684437124	5.0000195296864245
C	-4.959441657509715	-1.2568459984437121	5.000003699686425
C	-2.4164296675097154	1.4825565815562878	5.000011209686424
C	-1.2007996875097156	0.7619837015562877	4.9999759796864245
C	-1.2433080475097154	-0.6912550584437123	5.000029649686424
C	-2.4990664875097157	-1.3393973484437123	4.999965149686425
C	0.0411272024902846	1.4070263915562877	5.000032599686425
C	1.2432107324902846	0.6904650215562876	4.999945989686425
C	1.2008466424902846	-0.7627775684437121	5.000051039686425
C	-0.04115134750971541	-1.4078008684437122	4.999965989686425
C	2.4987922124902844	1.3388701415562876	5.000000289686424
C	3.6803964224902845	0.6189428015562877	4.9999824096864245
C	3.638215882490284	-0.8331017784437125	4.9999829896864245
C	2.4166714224902845	-1.4830955284437122	5.0000382296864245
C	4.9590588124902855	1.2569734315562877	4.999989449686424
C	6.110972702490285	0.5371731915562877	5.000017299686425
C	6.0694715624902855	-0.8920818284437122	4.999989449686424
C	4.877846482490285	-1.5440381884437124	5.000017969686424
F	-4.851208657509715	2.887539891556288	4.999971689686425
F	-7.230963977509715	1.5520275515562878	5.000035289686425
F	-7.309442737509714	-1.1270285684437125	4.999962259686424
F	-5.011733927509715	-2.5994592684437117	5.000032059686425
H	-2.5371761775097155	-2.4224643484437123	4.999994629686425
H	-0.07299316750971539	-2.493269558443712	5.000000979686424
H	2.3914431924902844	-2.566549638443712	4.999992149686425
F	4.852049682490286	-2.8874346184437125	4.9999696896864245
F	7.231359572490285	-1.5512155384437125	5.000026029686425
F	7.3090989424902855	1.1278629815562877	4.999971789686424
F	5.010900342490285	2.599609751556288	5.0000294596864245
H	2.5366631824902846	2.4219245815562878	4.999990349686424
H	0.07296714249028459	2.4924596615562877	4.9999974596864245
H	-2.3909649475097154	2.565984601556288	5.000011529686424
