72
111c_H_capped_F cofacial 4.5A
C	-6.1111333002350845	-0.5366961754779596	1.0896864831839039e-06
C	-6.069277310235084	0.8925486645220404	-1.6980313516816095e-05
C	-4.877454180235084	1.5441457945220405	1.4579686483183904e-05
C	-3.6380620602350846	0.8328070145220404	-1.3790313516816095e-05
C	-3.6805673102350847	-0.6192284954779597	1.9529686483183906e-05
C	-4.959441910235085	-1.2568467254779594	3.6996864831839037e-06
C	-2.4164299202350845	1.4825558545220405	1.1209686483183904e-05
C	-1.2007999402350846	0.7619829745220404	-2.4020313516816096e-05
C	-1.2433083002350844	-0.6912557854779595	2.9649686483183904e-05
C	-2.499066740235085	-1.3393980754779595	-3.48503135168161e-05
C	0.04112694976491549	1.4070256645220405	3.25996864831839e-05
C	1.2432104797649155	0.6904642945220404	-5.40103135168161e-05
C	1.2008463897649155	-0.7627782954779594	5.10396864831839e-05
C	-0.04115160023508452	-1.4078015954779595	-3.40103135168161e-05
C	2.4987919597649153	1.3388694145220403	2.8968648318390377e-07
C	3.6803961697649155	0.6189420745220404	-1.7590313516816095e-05
C	3.638215629764915	-0.8331025054779597	-1.7010313516816097e-05
C	2.4166711697649155	-1.4830962554779594	3.82296864831839e-05
C	4.959058559764916	1.2569727045220405	-1.0550313516816096e-05
C	6.110972449764915	0.5371724645220405	1.7299686483183905e-05
C	6.069471309764916	-0.8920825554779594	-1.0550313516816096e-05
C	4.877846229764915	-1.5440389154779597	1.7969686483183904e-05
F	-4.851208910235084	2.8875391645220407	-2.8310313516816097e-05
F	-7.2309642302350845	1.5520268245220405	3.5289686483183904e-05
F	-7.309442990235084	-1.1270292954779597	-3.77403135168161e-05
F	-5.011734180235084	-2.599459995477959	3.20596864831839e-05
H	-2.5371764302350845	-2.4224650754779598	-5.370313516816096e-06
H	-0.07299342023508451	-2.4932702854779594	9.796864831839039e-07
H	2.3914429397649153	-2.5665503654779593	-7.850313516816096e-06
F	4.852049429764916	-2.88743534547796	-3.0310313516816095e-05
F	7.231359319764915	-1.5512162654779598	2.6029686483183905e-05
F	7.309098689764916	1.1278622545220405	-2.8210313516816094e-05
F	5.010900089764916	2.5996090245220405	2.9459686483183904e-05
H	2.5366629297649155	2.4219238545220403	-9.650313516816096e-06
H	0.07296688976491547	2.4924589345220403	-2.5403135168160963e-06
H	-2.3909652002350845	2.5659838745220407	1.1529686483183905e-05
C	-6.111133072782252	-0.536695521147137	4.50000108968643
C	-6.069277082782252	0.8925493188528629	4.49998301968643
C	-4.877453952782251	1.5441464488528631	4.50001457968643
C	-3.6380618327822525	0.832807668852863	4.49998620968643
C	-3.6805670827822525	-0.6192278411471371	4.50001952968643
C	-4.959441682782252	-1.2568460711471368	4.50000369968643
C	-2.4164296927822524	1.4825565088528632	4.50001120968643
C	-1.2007997127822525	0.761983628852863	4.49997597968643
C	-1.2433080727822523	-0.691255131147137	4.50002964968643
C	-2.4990665127822527	-1.339397421147137	4.49996514968643
C	0.04112717721774769	1.4070263188528631	4.50003259968643
C	1.2432107072177476	0.6904649488528629	4.49994598968643
C	1.2008466172177477	-0.7627776411471369	4.50005103968643
C	-0.04115137278225232	-1.4078009411471368	4.49996598968643
C	2.4987921872177474	1.338870068852863	4.5000002896864295
C	3.6803963972177476	0.618942728852863	4.49998240968643
C	3.638215857217747	-0.8331018511471372	4.49998298968643
C	2.4166713972177476	-1.4830956011471368	4.50003822968643
C	4.9590587872177485	1.256973358852863	4.49998944968643
C	6.110972677217748	0.537173118852863	4.50001729968643
C	6.069471537217749	-0.8920819011471369	4.49998944968643
C	4.877846457217748	-1.544038261147137	4.5000179696864295
F	-4.851208682782252	2.887539818852863	4.49997168968643
F	-7.230964002782252	1.5520274788528632	4.50003528968643
F	-7.309442762782251	-1.127028641147137	4.49996225968643
F	-5.011733952782252	-2.5994593411471367	4.50003205968643
H	-2.5371762027822524	-2.4224644211471373	4.49999462968643
H	-0.0729931927822523	-2.493269631147137	4.50000097968643
H	2.3914431672177474	-2.566549711147137	4.49999214968643
F	4.852049657217749	-2.8874346911471376	4.49996968968643
F	7.231359547217748	-1.5512156111471371	4.50002602968643
F	7.3090989172177485	1.127862908852863	4.4999717896864295
F	5.010900317217748	2.599609678852863	4.50002945968643
H	2.5366631572177476	2.4219245088528627	4.4999903496864295
H	0.07296711721774768	2.4924595888528627	4.49999745968643
H	-2.3909649727822524	2.565984528852863	4.50001152968643
