72
111c_H_capped_F PD long
C	-6.1111333002350845	-0.5366961754779596	1.0896864831839039e-06
C	-6.069277310235084	0.8925486645220404	-1.6980313516816095e-05
C	-4.877454180235084	1.5441457945220405	1.4579686483183904e-05
C	-3.6380620602350846	0.8328070145220404	-1.3790313516816095e-05
C	-3.6805673102350847	-0.6192284954779597	1.9529686483183906e-05
C	-4.959441910235085	-1.2568467254779594	3.6996864831839037e-06
C	-2.4164299202350845	1.4825558545220405	1.1209686483183904e-05
C	-1.2007999402350846	0.7619829745220404	-2.4020313516816096e-05
C	-1.2433083002350844	-0.6912557854779595	2.9649686483183904e-05
C	-2.499066740235085	-1.3393980754779595	-3.48503135168161e-05
C	0.04112694976491549	1.4070256645220405	3.25996864831839e-05
C	1.2432104797649155	0.6904642945220404	-5.40103135168161e-05
C	1.2008463897649155	-0.7627782954779594	5.10396864831839e-05
C	-0.04115160023508452	-1.4078015954779595	-3.40103135168161e-05
C	2.4987919597649153	1.3388694145220403	2.8968648318390377e-07
C	3.6803961697649155	0.6189420745220404	-1.7590313516816095e-05
C	3.638215629764915	-0.8331025054779597	-1.7010313516816097e-05
C	2.4166711697649155	-1.4830962554779594	3.82296864831839e-05
C	4.959058559764916	1.2569727045220405	-1.0550313516816096e-05
C	6.110972449764915	0.5371724645220405	1.7299686483183905e-05
C	6.069471309764916	-0.8920825554779594	-1.0550313516816096e-05
C	4.877846229764915	-1.5440389154779597	1.7969686483183904e-05
F	-4.851208910235084	2.8875391645220407	-2.8310313516816097e-05
F	-7.2309642302350845	1.5520268245220405	3.5289686483183904e-05
F	-7.309442990235084	-1.1270292954779597	-3.77403135168161e-05
F	-5.011734180235084	-2.599459995477959	3.20596864831839e-05
H	-2.5371764302350845	-2.4224650754779598	-5.370313516816096e-06
H	-0.07299342023508451	-2.4932702854779594	9.796864831839039e-07
H	2.3914429397649153	-2.5665503654779593	-7.850313516816096e-06
F	4.852049429764916	-2.88743534547796	-3.0310313516816095e-05
F	7.231359319764915	-1.5512162654779598	2.6029686483183905e-05
F	7.309098689764916	1.1278622545220405	-2.8210313516816094e-05
F	5.010900089764916	2.5996090245220405	2.9459686483183904e-05
H	2.5366629297649155	2.4219238545220403	-9.650313516816096e-06
H	0.07296688976491547	2.4924589345220403	-2.5403135168160963e-06
H	-2.3909652002350845	2.5659838745220407	1.1529686483183905e-05
C	-1.7462206648313583	-0.6641156201013653	3.5000008875893536
C	-1.7043646748313581	0.7651292198986347	3.4999828175893533
C	-0.5125415448313578	1.4167263498986349	3.5000143775893533
C	0.7268505751686415	0.7053875698986348	3.4999860075893534
C	0.6843453251686414	-0.7466479401013654	3.5000193275893534
C	-0.5945292748313585	-1.384266170101365	3.5000034975893533
C	1.9484827151686417	1.355136409898635	3.5000110075893534
C	3.1641126951686416	0.6345635298986348	3.4999757775893534
C	3.1216043351686413	-0.8186752301013652	3.5000294475893536
C	1.8658458951686414	-1.4668175201013651	3.4999649475893535
C	4.406039585168642	1.2796062198986349	3.5000323975893535
C	5.608123115168642	0.5630448498986348	3.4999457875893536
C	5.565759025168642	-0.8901977401013651	3.5000508375893533
C	4.3237610351686415	-1.535221040101365	3.4999657875893533
C	6.863704595168642	1.2114499698986347	3.5000000875893535
C	8.045308805168641	0.49152262989863477	3.4999822075893534
C	8.003128265168641	-0.9605219501013654	3.4999827875893534
C	6.7815838051686415	-1.610515700101365	3.5000380275893535
C	9.323971195168642	1.1295532598986349	3.4999892475893533
C	10.475885085168642	0.40975301989863483	3.5000170975893536
C	10.43438394516864	-1.019502000101365	3.4999892475893533
C	9.242758865168641	-1.6714583601013653	3.5000177675893536
F	-0.48629627483135823	2.7601197198986354	3.4999714875893533
F	-2.8660515948313585	1.424607379898635	3.5000350875893536
F	-2.944530354831358	-1.2544487401013653	3.4999620575893533
F	-0.6468215448313582	-2.7268794401013645	3.5000318575893536
H	1.8277362051686417	-2.549884520101365	3.4999944275893533
H	4.291919215168642	-2.6206897301013647	3.5000007775893534
H	6.756355575168642	-2.6939698101013647	3.4999919475893533
F	9.21696206516864	-3.0148547901013654	3.4999694875893534
F	11.59627195516864	-1.6786357101013654	3.5000258275893534
F	11.674011325168642	1.0004428098986349	3.4999715875893536
F	9.375812725168641	2.472189579898635	3.5000292575893535
H	6.901575565168642	2.294504409898635	3.4999901475893536
H	4.437879525168642	2.365039489898635	3.4999972575893534
H	1.9739474351686417	2.4385644298986353	3.5000113275893536
