42
41 TL45.0
C	-5.15087942935879	-0.2452268340575562	-9.667829633279734e-07
C	-4.585618249358791	0.996128955942444	2.173217036672027e-06
C	-3.16579080935879	0.9181379459424437	-4.546782963327974e-06
C	-2.6722118193587905	-0.3816342940575561	5.932170366720266e-07
S	-3.9720282193587906	-1.5386469740575561	2.033217036672027e-06
S	-1.8819510693587906	2.120543025942444	6.632170366720265e-07
C	-0.6824342993587904	0.8396230159424438	2.523217036672027e-06
C	-1.2543824693587906	-0.42840731405755617	9.193217036672026e-06
C	0.7345891206412096	0.7943787259424437	-6.406782963327974e-06
C	1.2245017606412096	-0.5075568940575562	-8.386782963327974e-06
S	-0.0545541593587906	-1.7086148340575562	-8.067829633279735e-07
S	2.0133473906412096	1.996182095942444	3.932170366720266e-07
C	3.21787546064121	0.7143621859424438	-2.467829633279734e-07
C	2.6424331806412096	-0.5513044740575561	3.8132170366720268e-06
H	-6.20119839935879	-0.49619562405755613	-3.826782963327973e-06
H	-5.158036499358791	1.9147461959424437	-2.1678296332797342e-07
C	4.639785810641209	0.7016512659424439	1.993217036672027e-06
C	5.124749580641209	-0.5731909440575562	-5.167829633279735e-07
S	3.86586138064121	-1.788847454057556	-1.8367829633279733e-06
H	5.26966760064121	1.5818622659424437	-5.367829633279734e-07
H	6.15696441064121	-0.8904199140575562	-2.967829633279734e-07
C	-5.147052334264779	-0.1253641790765801	-4.795613727389803
C	-4.5935544091325085	0.7474952442989466	-3.9055345888351507
C	-3.173421687707234	0.6790674970337073	-3.9286268820166947
C	-2.667849701679751	-0.24501149227226035	-4.836097588837551
S	-3.9564717287199884	-1.0513486315229505	-5.683136374657622
S	-1.9011956862417503	1.5176599672350435	-3.0498629065619745
C	-0.6900724116323479	0.6003259566252545	-3.9280857030157277
C	-1.2500064058442746	-0.29134764435905164	-4.837160913570006
C	0.726951311171983	0.5550911523927528	-3.9280991806978127
C	1.2288784076160826	-0.37047894664688513	-4.837186599530251
S	-0.038578071430819996	-1.2081721638098761	-5.71488151772375
S	1.9941029419959062	1.393304307467825	-3.0498739792589364
C	3.2102444842015525	0.4752886641876954	-3.928621486285491
C	2.6467954032530163	-0.41467838516800415	-4.836106855921276
H	-6.194713954303985	-0.293088678557211	-4.996683104657703
H	-5.174382104931113	1.4026777244157114	-3.2692206787991362
C	4.631849556174174	0.4530145879512238	-3.9055239583027155
C	5.128576209263721	-0.45334290177297254	-4.795575221740899
S	3.8814179930443724	-1.3015452970671906	-5.683138926913708
H	5.253322156477966	1.0697988507496254	-3.2692288584183293
H	6.163446289939252	-0.6873933436090088	-4.996488092105681
