42
41 cofacial 4.5A
C	-5.15087942935879	-0.2452268340575562	-9.667829633279734e-07
C	-4.585618249358791	0.996128955942444	2.173217036672027e-06
C	-3.16579080935879	0.9181379459424437	-4.546782963327974e-06
C	-2.6722118193587905	-0.3816342940575561	5.932170366720266e-07
S	-3.9720282193587906	-1.5386469740575561	2.033217036672027e-06
S	-1.8819510693587906	2.120543025942444	6.632170366720265e-07
C	-0.6824342993587904	0.8396230159424438	2.523217036672027e-06
C	-1.2543824693587906	-0.42840731405755617	9.193217036672026e-06
C	0.7345891206412096	0.7943787259424437	-6.406782963327974e-06
C	1.2245017606412096	-0.5075568940575562	-8.386782963327974e-06
S	-0.0545541593587906	-1.7086148340575562	-8.067829633279735e-07
S	2.0133473906412096	1.996182095942444	3.932170366720266e-07
C	3.21787546064121	0.7143621859424438	-2.467829633279734e-07
C	2.6424331806412096	-0.5513044740575561	3.8132170366720268e-06
H	-6.20119839935879	-0.49619562405755613	-3.826782963327973e-06
H	-5.158036499358791	1.9147461959424437	-2.1678296332797342e-07
C	4.639785810641209	0.7016512659424439	1.993217036672027e-06
C	5.124749580641209	-0.5731909440575562	-5.167829633279735e-07
S	3.86586138064121	-1.788847454057556	-1.8367829633279733e-06
H	5.26966760064121	1.5818622659424437	-5.367829633279734e-07
H	6.15696441064121	-0.8904199140575562	-2.967829633279734e-07
C	-5.150880240121219	-0.24522713037648028	4.499999033216954
C	-4.5856190601212194	0.9961286596235199	4.500002173216954
C	-3.165791620121219	0.9181376496235196	4.499995453216954
C	-2.6722126301212192	-0.3816345903764802	4.500000593216954
S	-3.9720290301212193	-1.5386472703764802	4.500002033216954
S	-1.8819518801212192	2.1205427296235198	4.500000663216954
C	-0.6824351101212189	0.8396227196235198	4.5000025232169545
C	-1.2543832801212191	-0.42840761037648023	4.500009193216954
C	0.7345883098787811	0.7943784296235197	4.499993593216954
C	1.224500949878781	-0.5075571903764803	4.499991613216954
S	-0.05455497012121913	-1.7086151303764803	4.499999193216954
S	2.013346579878781	1.9961817996235198	4.500000393216954
C	3.217874649878781	0.7143618896235198	4.4999997532169544
C	2.642432369878781	-0.5513047703764802	4.500003813216954
H	-6.201199210121219	-0.4961959203764802	4.499996173216954
H	-5.15803731012122	1.9147458996235196	4.499999783216954
C	4.63978499987878	0.7016509696235198	4.500001993216954
C	5.124748769878781	-0.5731912403764803	4.499999483216954
S	3.865860569878781	-1.7888477503764801	4.499998163216954
H	5.269666789878781	1.5818619696235197	4.499999463216954
H	6.1569635998787815	-0.8904202103764802	4.499999703216954
