42
41 PD long+short
C	-5.15087942935879	-0.2452268340575562	-9.667829633279734e-07
C	-4.585618249358791	0.996128955942444	2.173217036672027e-06
C	-3.16579080935879	0.9181379459424437	-4.546782963327974e-06
C	-2.6722118193587905	-0.3816342940575561	5.932170366720266e-07
S	-3.9720282193587906	-1.5386469740575561	2.033217036672027e-06
S	-1.8819510693587906	2.120543025942444	6.632170366720265e-07
C	-0.6824342993587904	0.8396230159424438	2.523217036672027e-06
C	-1.2543824693587906	-0.42840731405755617	9.193217036672026e-06
C	0.7345891206412096	0.7943787259424437	-6.406782963327974e-06
C	1.2245017606412096	-0.5075568940575562	-8.386782963327974e-06
S	-0.0545541593587906	-1.7086148340575562	-8.067829633279735e-07
S	2.0133473906412096	1.996182095942444	3.932170366720266e-07
C	3.21787546064121	0.7143621859424438	-2.467829633279734e-07
C	2.6424331806412096	-0.5513044740575561	3.8132170366720268e-06
H	-6.20119839935879	-0.49619562405755613	-3.826782963327973e-06
H	-5.158036499358791	1.9147461959424437	-2.1678296332797342e-07
C	4.639785810641209	0.7016512659424439	1.993217036672027e-06
C	5.124749580641209	-0.5731909440575562	-5.167829633279735e-07
S	3.86586138064121	-1.788847454057556	-1.8367829633279733e-06
H	5.26966760064121	1.5818622659424437	-5.367829633279734e-07
H	6.15696441064121	-0.8904199140575562	-2.967829633279734e-07
C	-1.5677598923221763	-2.1202461280736107	3.4999995553182117
C	-1.002498712322177	-0.8788903380736103	3.5000026953182117
C	0.41732872767782375	-0.9568813480736106	3.4999959753182117
C	0.9109077176778234	-2.2566535880736107	3.5000011153182116
S	-0.38890868232217674	-3.4136662680736105	3.5000025553182117
S	1.7011684676778231	0.24552373192638957	3.5000011853182116
C	2.9006852376778234	-1.0353962780736103	3.500003045318212
C	2.328737067677823	-2.3034266080736105	3.5000097153182117
C	4.317708657677823	-1.0806405680736104	3.4999941153182115
C	4.807621297677823	-2.3825761880736107	3.4999921353182115
S	3.528565377677823	-3.583634128073611	3.4999997153182116
S	5.596466927677824	0.12116280192638963	3.500000915318212
C	6.800994997677824	-1.1606571080736103	3.500000275318212
C	6.225552717677823	-2.4263237680736105	3.5000043353182115
H	-2.6180788623221765	-2.3712149180736106	3.499996695318212
H	-1.574916962322177	0.03972690192638941	3.5000003053182116
C	8.222905347677823	-1.1733680280736103	3.5000025153182115
C	8.707869117677824	-2.4482102380736106	3.5000000053182116
S	7.448980917677824	-3.6638667480736102	3.4999986853182117
H	8.852787137677824	-0.29315702807361055	3.4999999853182118
H	9.740083947677824	-2.7654392080736105	3.5000002253182116
