42
41 cofacial 4.0A
C	-5.15087942935879	-0.2452268340575562	-9.667829633279734e-07
C	-4.585618249358791	0.996128955942444	2.173217036672027e-06
C	-3.16579080935879	0.9181379459424437	-4.546782963327974e-06
C	-2.6722118193587905	-0.3816342940575561	5.932170366720266e-07
S	-3.9720282193587906	-1.5386469740575561	2.033217036672027e-06
S	-1.8819510693587906	2.120543025942444	6.632170366720265e-07
C	-0.6824342993587904	0.8396230159424438	2.523217036672027e-06
C	-1.2543824693587906	-0.42840731405755617	9.193217036672026e-06
C	0.7345891206412096	0.7943787259424437	-6.406782963327974e-06
C	1.2245017606412096	-0.5075568940575562	-8.386782963327974e-06
S	-0.0545541593587906	-1.7086148340575562	-8.067829633279735e-07
S	2.0133473906412096	1.996182095942444	3.932170366720266e-07
C	3.21787546064121	0.7143621859424438	-2.467829633279734e-07
C	2.6424331806412096	-0.5513044740575561	3.8132170366720268e-06
H	-6.20119839935879	-0.49619562405755613	-3.826782963327973e-06
H	-5.158036499358791	1.9147461959424437	-2.1678296332797342e-07
C	4.639785810641209	0.7016512659424439	1.993217036672027e-06
C	5.124749580641209	-0.5731909440575562	-5.167829633279735e-07
S	3.86586138064121	-1.788847454057556	-1.8367829633279733e-06
H	5.26966760064121	1.5818622659424437	-5.367829633279734e-07
H	6.15696441064121	-0.8904199140575562	-2.967829633279734e-07
C	-5.150880150036504	-0.24522709745215537	3.999999033216963
C	-4.585618970036505	0.9961286925478448	4.000002173216963
C	-3.1657915300365045	0.9181376825478444	3.999995453216963
C	-2.672212540036505	-0.3816345574521553	4.000000593216963
S	-3.972028940036505	-1.5386472374521554	4.000002033216963
S	-1.8819517900365048	2.120542762547845	4.000000663216963
C	-0.6824350200365047	0.8396227525478446	4.000002523216963
C	-1.2543831900365048	-0.42840757745215535	4.000009193216963
C	0.7345883999634953	0.7943784625478445	3.999993593216963
C	1.2245010399634955	-0.5075571574521555	3.999991613216963
S	-0.054554880036504855	-1.7086150974521555	3.9999991932169627
S	2.013346669963495	1.9961818325478446	4.000000393216963
C	3.2178747399634955	0.7143619225478446	3.999999753216963
C	2.642432459963495	-0.5513047374521554	4.000003813216963
H	-6.201199120036504	-0.4961958874521553	3.999996173216963
H	-5.158037220036505	1.9147459325478444	3.999999783216963
C	4.639785089963495	0.7016510025478446	4.000001993216963
C	5.124748859963495	-0.5731912074521555	3.9999994832169627
S	3.8658606599634955	-1.7888477174521553	3.9999981632169628
H	5.269666879963496	1.5818620025478445	3.999999463216963
H	6.156963689963496	-0.8904201774521554	3.9999997032169627
