42
41 TL90.0
C	-5.15087942935879	-0.2452268340575562	-9.667829633279734e-07
C	-4.585618249358791	0.996128955942444	2.173217036672027e-06
C	-3.16579080935879	0.9181379459424437	-4.546782963327974e-06
C	-2.6722118193587905	-0.3816342940575561	5.932170366720266e-07
S	-3.9720282193587906	-1.5386469740575561	2.033217036672027e-06
S	-1.8819510693587906	2.120543025942444	6.632170366720265e-07
C	-0.6824342993587904	0.8396230159424438	2.523217036672027e-06
C	-1.2543824693587906	-0.42840731405755617	9.193217036672026e-06
C	0.7345891206412096	0.7943787259424437	-6.406782963327974e-06
C	1.2245017606412096	-0.5075568940575562	-8.386782963327974e-06
S	-0.0545541593587906	-1.7086148340575562	-8.067829633279735e-07
S	2.0133473906412096	1.996182095942444	3.932170366720266e-07
C	3.21787546064121	0.7143621859424438	-2.467829633279734e-07
C	2.6424331806412096	-0.5513044740575561	3.8132170366720268e-06
H	-6.20119839935879	-0.49619562405755613	-3.826782963327973e-06
H	-5.158036499358791	1.9147461959424437	-2.1678296332797342e-07
C	4.639785810641209	0.7016512659424439	1.993217036672027e-06
C	5.124749580641209	-0.5731909440575562	-5.167829633279735e-07
S	3.86586138064121	-1.788847454057556	-1.8367829633279733e-06
H	5.26966760064121	1.5818622659424437	-5.367829633279734e-07
H	6.15696441064121	-0.8904199140575562	-2.967829633279734e-07
C	-5.137814770542538	0.1640091564030666	-6.048863536916809
C	-4.612715400722778	0.1472439498837529	-4.790104632814584
C	-3.1918459875859906	0.10189410517002949	-4.822755198808098
C	-2.657320443120591	0.08482599810613714	-6.106117664094378
S	-3.9189170893811216	0.12509686791576433	-7.3040129744536655
S	-1.947657493476122	0.062172279795761655	-3.5800003468144435
C	-0.7085138765051182	0.022614847185880433	-4.821996667090162
C	-1.2394431027888195	0.03955633764144809	-6.107629884454151
C	0.7085101630118386	-0.022610035536376093	-4.82200664960195
C	1.23944230611403	-0.039556311490767014	-6.10764837131631
S	-1.0605550827176788e-05	1.5495232482606587e-06	-7.3489041375381845
S	1.9476414974391043	-0.06217201858277015	-3.580015329656061
C	3.1918200902417744	-0.10188767491075061	-4.822751202214969
C	2.6573250177276	-0.08482974524962981	-6.1061334353619685
H	-6.179061172481673	0.19725037385511082	-6.3332158258388676
H	-5.213845171247152	0.16643542571632844	-3.8902185440185217
C	4.612688253732972	-0.14724644429759454	-4.790088456674413
C	5.137812584581125	-0.16400679473753785	-6.048808459860588
S	3.9189726887539584	-0.1250980317121977	-7.30401189632267
H	5.21385938161314	-0.16643431782115692	-3.8902287040385164
H	6.179092937530098	-0.1972464546188436	-6.332942277370366
