42
41 PD short
C	-5.15087942935879	-0.2452268340575562	-9.667829633279734e-07
C	-4.585618249358791	0.996128955942444	2.173217036672027e-06
C	-3.16579080935879	0.9181379459424437	-4.546782963327974e-06
C	-2.6722118193587905	-0.3816342940575561	5.932170366720266e-07
S	-3.9720282193587906	-1.5386469740575561	2.033217036672027e-06
S	-1.8819510693587906	2.120543025942444	6.632170366720265e-07
C	-0.6824342993587904	0.8396230159424438	2.523217036672027e-06
C	-1.2543824693587906	-0.42840731405755617	9.193217036672026e-06
C	0.7345891206412096	0.7943787259424437	-6.406782963327974e-06
C	1.2245017606412096	-0.5075568940575562	-8.386782963327974e-06
S	-0.0545541593587906	-1.7086148340575562	-8.067829633279735e-07
S	2.0133473906412096	1.996182095942444	3.932170366720266e-07
C	3.21787546064121	0.7143621859424438	-2.467829633279734e-07
C	2.6424331806412096	-0.5513044740575561	3.8132170366720268e-06
H	-6.20119839935879	-0.49619562405755613	-3.826782963327973e-06
H	-5.158036499358791	1.9147461959424437	-2.1678296332797342e-07
C	4.639785810641209	0.7016512659424439	1.993217036672027e-06
C	5.124749580641209	-0.5731909440575562	-5.167829633279735e-07
S	3.86586138064121	-1.788847454057556	-1.8367829633279733e-06
H	5.26966760064121	1.5818622659424437	-5.367829633279734e-07
H	6.15696441064121	-0.8904199140575562	-2.967829633279734e-07
C	-5.207025756327016	-2.0040739240387238	3.499998907283543
C	-4.641764576327017	-0.7627181340387233	3.500002047283543
C	-3.2219371363270155	-0.8407091440387237	3.4999953272835436
C	-2.728358146327016	-2.1404813840387233	3.5000004672835434
S	-4.028174546327016	-3.2974940640387236	3.5000019072835435
S	-1.938097396327016	0.36169593596127647	3.5000005372835434
C	-0.7385806263270157	-0.9192240740387235	3.5000023972835432
C	-1.310528796327016	-2.1872544040387236	3.5000090672835436
C	0.6784427936729843	-0.9644683640387236	3.4999934672835433
C	1.1683554336729842	-2.266403984038724	3.4999914872835434
S	-0.11070048632701598	-3.4674619240387234	3.4999990672835435
S	1.9572010636729842	0.23733500596127657	3.5000002672835433
C	3.1617291336729845	-1.0444849040387234	3.499999627283543
C	2.586286853672984	-2.3101515640387236	3.5000036872835434
H	-6.257344726327016	-2.2550427140387237	3.499996047283543
H	-5.214182826327017	0.15589910596127635	3.4999996572835435
C	4.583639483672983	-1.0571958240387234	3.5000018672835433
C	5.0686032536729835	-2.3320380340387237	3.4999993572835435
S	3.8097150536729845	-3.5476945440387238	3.4999980372835435
H	5.213521273672984	-0.1769848240387236	3.499999337283543
H	6.100818083672984	-2.6492670040387236	3.4999995772835435
