76
98b_H_capped cofacial 3.5A
C	-3.4280010313181797	2.6112867167488742	-5.413294561154788e-07
C	-2.4353573713181795	3.555114936748874	9.348670543884521e-06
C	-1.1741274613181798	2.8733580967488743	2.125867054388452e-05
C	-2.8106745013181795	1.317312616748874	-1.352132945611548e-05
N	-1.4568266813181798	1.5320612067488741	9.338670543884521e-06
C	0.10001764868182006	3.433714366748874	-1.720132945611548e-05
C	1.3212780486818203	2.752965196748874	-6.761329456115479e-06
C	2.6177343886818205	3.423016506748874	-8.10132945611548e-06
C	3.55064178868182	2.442045966748874	3.818670543884522e-06
C	2.81622089868182	1.180952396748874	7.286705438845212e-07
N	1.4734719286818203	1.400756106748874	2.618670543884521e-06
C	-3.43450633131818	0.07301354674887417	-5.251329456115479e-06
C	-2.81610081131818	-1.180975693251126	2.772867054388452e-05
C	-3.5505140813181795	-2.442070613251126	5.748670543884522e-06
C	-2.6177188913181797	-3.423149633251126	-3.386132945611548e-05
N	-1.4732721913181797	-1.4009760632511261	-7.581329456115478e-06
C	-1.3212592513181798	-2.7530894232511263	1.7186705438845213e-06
C	-0.10001611131817967	-3.4337886632511263	2.421867054388452e-05
C	1.1739984186818204	-2.8732633232511255	-8.711329456115479e-06
N	1.4566577086818202	-1.531881993251126	-7.713294561154788e-07
C	2.81058839868182	-1.3171743532511258	-1.337132945611548e-05
C	3.4278882586818202	-2.611190963251126	2.4458670543884522e-05
C	2.43525508868182	-3.554983763251126	-1.823132945611548e-05
C	3.4345812386818206	-0.07301415325112615	2.7586705438845213e-06
H	-0.7594444813181798	0.798612696748874	1.491867054388452e-05
H	0.7592589886818204	-0.7983682732511261	-1.5313294561154787e-06
H	0.14112888868182027	4.517933256748874	9.008670543884521e-06
H	4.51954490868182	-0.08668205325112588	-1.9313294561154787e-06
H	-0.1410279313181797	-4.518057873251125	-1.6313294561154786e-06
H	-4.51943046131818	0.08657124674887395	-2.6132945611547876e-07
H	-2.5486066013181796	4.629812146748874	-1.264132945611548e-05
H	-4.49561727131818	2.778540296748874	-4.511329456115478e-06
H	-4.62790231131818	-2.542399263251126	1.2586705438845212e-06
H	-2.77215347131818	-4.494186393251127	-6.301329456115479e-06
H	2.54887785868182	-4.629700313251126	8.68867054388452e-06
H	4.495520728681821	-2.778846693251126	-2.6813294561154787e-06
H	4.628096778681821	2.5423995467488743	-8.61132945611548e-06
H	2.7721808286818206	4.4939873767488745	1.0186705438845212e-06
C	-3.4280012990425326	2.611287555117149	3.499999458670434
C	-2.4353576390425324	3.555115775117149	3.500009348670434
C	-1.1741277290425327	2.873358935117149	3.500021258670434
C	-2.8106747690425324	1.3173134551171488	3.4999864786704338
N	-1.4568269490425327	1.532062045117149	3.500009338670434
C	0.10001738095746711	3.433715205117149	3.499982798670434
C	1.3212777809574674	2.752966035117149	3.4999932386704335
C	2.6177341209574676	3.423017345117149	3.4999918986704337
C	3.550641520957467	2.442046805117149	3.5000038186704336
C	2.816220630957467	1.1809532351171488	3.5000007286704338
N	1.4734716609574674	1.4007569451171489	3.500002618670434
C	-3.4345065990425327	0.07301438511714903	3.4999947486704337
C	-2.8161010790425327	-1.1809748548828511	3.5000277286704335
C	-3.5505143490425324	-2.4420697748828513	3.500005748670434
C	-2.6177191590425326	-3.4231487948828514	3.499966138670434
N	-1.4732724590425326	-1.4009752248828513	3.4999924186704336
C	-1.3212595190425327	-2.7530885848828515	3.500001718670434
C	-0.10001637904253262	-3.4337878248828515	3.5000242186704336
C	1.1739981509574675	-2.8732624848828507	3.499991288670434
N	1.4566574409574673	-1.5318811548828513	3.4999992286704336
C	2.810588130957467	-1.317173514882851	3.4999866286704338
C	3.4278879909574673	-2.6111901248828513	3.500024458670434
C	2.435254820957467	-3.554982924882851	3.4999817686704335
C	3.4345809709574677	-0.07301331488285129	3.500002758670434
H	-0.7594447490425327	0.7986135351171489	3.5000149186704337
H	0.7592587209574675	-0.7983674348828512	3.4999984686704337
H	0.14112862095746734	4.517934095117149	3.5000090086704336
H	4.519544640957467	-0.08668121488285102	3.499998068670434
H	-0.14102819904253264	-4.51805703488285	3.499998368670434
H	-4.519430729042533	0.08657208511714881	3.4999997386704336
H	-2.5486068690425325	4.629812985117149	3.4999873586704338
H	-4.495617539042533	2.7785411351171487	3.4999954886704336
H	-4.627902579042533	-2.542398424882851	3.5000012586704337
H	-2.772153739042533	-4.4941855548828515	3.499993698670434
H	2.548877590957467	-4.629699474882851	3.500008688670434
H	4.495520460957468	-2.778845854882851	3.4999973186704336
H	4.628096510957468	2.542400385117149	3.4999913886704337
H	2.7721805609574677	4.49398821511715	3.500001018670434
