76
98b_H_capped PD long
C	-3.4280010313181797	2.6112867167488742	-5.413294561154788e-07
C	-2.4353573713181795	3.555114936748874	9.348670543884521e-06
C	-1.1741274613181798	2.8733580967488743	2.125867054388452e-05
C	-2.8106745013181795	1.317312616748874	-1.352132945611548e-05
N	-1.4568266813181798	1.5320612067488741	9.338670543884521e-06
C	0.10001764868182006	3.433714366748874	-1.720132945611548e-05
C	1.3212780486818203	2.752965196748874	-6.761329456115479e-06
C	2.6177343886818205	3.423016506748874	-8.10132945611548e-06
C	3.55064178868182	2.442045966748874	3.818670543884522e-06
C	2.81622089868182	1.180952396748874	7.286705438845212e-07
N	1.4734719286818203	1.400756106748874	2.618670543884521e-06
C	-3.43450633131818	0.07301354674887417	-5.251329456115479e-06
C	-2.81610081131818	-1.180975693251126	2.772867054388452e-05
C	-3.5505140813181795	-2.442070613251126	5.748670543884522e-06
C	-2.6177188913181797	-3.423149633251126	-3.386132945611548e-05
N	-1.4732721913181797	-1.4009760632511261	-7.581329456115478e-06
C	-1.3212592513181798	-2.7530894232511263	1.7186705438845213e-06
C	-0.10001611131817967	-3.4337886632511263	2.421867054388452e-05
C	1.1739984186818204	-2.8732633232511255	-8.711329456115479e-06
N	1.4566577086818202	-1.531881993251126	-7.713294561154788e-07
C	2.81058839868182	-1.3171743532511258	-1.337132945611548e-05
C	3.4278882586818202	-2.611190963251126	2.4458670543884522e-05
C	2.43525508868182	-3.554983763251126	-1.823132945611548e-05
C	3.4345812386818206	-0.07301415325112615	2.7586705438845213e-06
H	-0.7594444813181798	0.798612696748874	1.491867054388452e-05
H	0.7592589886818204	-0.7983682732511261	-1.5313294561154787e-06
H	0.14112888868182027	4.517933256748874	9.008670543884521e-06
H	4.51954490868182	-0.08668205325112588	-1.9313294561154787e-06
H	-0.1410279313181797	-4.518057873251125	-1.6313294561154786e-06
H	-4.51943046131818	0.08657124674887395	-2.6132945611547876e-07
H	-2.5486066013181796	4.629812146748874	-1.264132945611548e-05
H	-4.49561727131818	2.778540296748874	-4.511329456115478e-06
H	-4.62790231131818	-2.542399263251126	1.2586705438845212e-06
H	-2.77215347131818	-4.494186393251127	-6.301329456115479e-06
H	2.54887785868182	-4.629700313251126	8.68867054388452e-06
H	4.495520728681821	-2.778846693251126	-2.6813294561154787e-06
H	4.628096778681821	2.5423995467488743	-8.61132945611548e-06
H	2.7721808286818206	4.4939873767488745	1.0186705438845212e-06
C	-5.576064224507757	4.857050463611997	3.499998756423253
C	-4.583420564507756	5.800878683611996	3.500008646423253
C	-3.3221906545077573	5.119121843611997	3.500020556423253
C	-4.958737694507757	3.5630763636119958	3.499985776423253
N	-3.604889874507757	3.777824953611996	3.500008636423253
C	-2.048045544507757	5.679478113611997	3.499982096423253
C	-0.826785144507757	4.998728943611996	3.499992536423253
C	0.4696711954922432	5.668780253611996	3.4999911964232533
C	1.4025785954922427	4.687809713611997	3.5000031164232532
C	0.6681577054922427	3.4267161436119955	3.500000026423253
N	-0.674591264507757	3.646519853611996	3.500001916423253
C	-5.582569524507758	2.318777293611996	3.4999940464232533
C	-4.964164004507757	1.0647880536119958	3.500027026423253
C	-5.698577274507757	-0.19630686638800426	3.500005046423253
C	-4.765782084507757	-1.1773858863880045	3.499965436423253
N	-3.621335384507757	0.8447876836119957	3.4999917164232532
C	-3.469322444507757	-0.5073256763880044	3.500001016423253
C	-2.248079304507757	-1.1880249163880046	3.500023516423253
C	-0.9740647745077569	-0.6274995763880037	3.499990586423253
N	-0.6914054845077571	0.7138817536119958	3.499998526423253
C	0.6625252054922428	0.9285893936119961	3.4999859264232533
C	1.279825065492243	-0.3654272163880043	3.500023756423253
C	0.2871918954922425	-1.3092200163880041	3.499981066423253
C	1.2865180454922434	2.1727495936119956	3.500002056423253
H	-2.907507674507757	3.0443764436119958	3.5000142164232533
H	-1.3888042045077569	1.4473954736119956	3.4999977664232533
H	-2.006934304507757	6.763697003611996	3.5000083064232532
H	2.371481715492243	2.159081693611996	3.499997366423253
H	-2.289091124507757	-2.2722941263880037	3.499997666423253
H	-6.667493654507757	2.3323349936119957	3.499999036423253
H	-4.696669794507757	6.8755758936119955	3.4999866564232534
H	-6.6436804645077565	5.024304043611996	3.4999947864232532
H	-6.775965504507758	-0.29663551638800406	3.5000005564232533
H	-4.920216664507757	-2.248422646388005	3.499992996423253
H	0.4008146654922426	-2.3839365663880043	3.500007986423253
H	2.3474575354922433	-0.5330829463880041	3.499996616423253
H	2.4800335854922433	4.788163293611997	3.4999906864232533
H	0.6241176354922433	6.739751123611996	3.500000316423253
