76
98b_H_capped TL45.0
C	-3.4280010313181797	2.6112867167488742	-5.413294561154788e-07
C	-2.4353573713181795	3.555114936748874	9.348670543884521e-06
C	-1.1741274613181798	2.8733580967488743	2.125867054388452e-05
C	-2.8106745013181795	1.317312616748874	-1.352132945611548e-05
N	-1.4568266813181798	1.5320612067488741	9.338670543884521e-06
C	0.10001764868182006	3.433714366748874	-1.720132945611548e-05
C	1.3212780486818203	2.752965196748874	-6.761329456115479e-06
C	2.6177343886818205	3.423016506748874	-8.10132945611548e-06
C	3.55064178868182	2.442045966748874	3.818670543884522e-06
C	2.81622089868182	1.180952396748874	7.286705438845212e-07
N	1.4734719286818203	1.400756106748874	2.618670543884521e-06
C	-3.43450633131818	0.07301354674887417	-5.251329456115479e-06
C	-2.81610081131818	-1.180975693251126	2.772867054388452e-05
C	-3.5505140813181795	-2.442070613251126	5.748670543884522e-06
C	-2.6177188913181797	-3.423149633251126	-3.386132945611548e-05
N	-1.4732721913181797	-1.4009760632511261	-7.581329456115478e-06
C	-1.3212592513181798	-2.7530894232511263	1.7186705438845213e-06
C	-0.10001611131817967	-3.4337886632511263	2.421867054388452e-05
C	1.1739984186818204	-2.8732633232511255	-8.711329456115479e-06
N	1.4566577086818202	-1.531881993251126	-7.713294561154788e-07
C	2.81058839868182	-1.3171743532511258	-1.337132945611548e-05
C	3.4278882586818202	-2.611190963251126	2.4458670543884522e-05
C	2.43525508868182	-3.554983763251126	-1.823132945611548e-05
C	3.4345812386818206	-0.07301415325112615	2.7586705438845213e-06
H	-0.7594444813181798	0.798612696748874	1.491867054388452e-05
H	0.7592589886818204	-0.7983682732511261	-1.5313294561154787e-06
H	0.14112888868182027	4.517933256748874	9.008670543884521e-06
H	4.51954490868182	-0.08668205325112588	-1.9313294561154787e-06
H	-0.1410279313181797	-4.518057873251125	-1.6313294561154786e-06
H	-4.51943046131818	0.08657124674887395	-2.6132945611547876e-07
H	-2.5486066013181796	4.629812146748874	-1.264132945611548e-05
H	-4.49561727131818	2.778540296748874	-4.511329456115478e-06
H	-4.62790231131818	-2.542399263251126	1.2586705438845212e-06
H	-2.77215347131818	-4.494186393251127	-6.301329456115479e-06
H	2.54887785868182	-4.629700313251126	8.68867054388452e-06
H	4.495520728681821	-2.778846693251126	-2.6813294561154787e-06
H	4.628096778681821	2.5423995467488743	-8.61132945611548e-06
H	2.7721808286818206	4.4939873767488745	1.0186705438845212e-06
C	-3.285703849998947	2.747395456803138	6.6363319554059075
C	-2.5829697078610248	3.4139261202091524	5.667799692175822
C	-1.414904317638907	2.6430577053712523	5.356546730619154
C	-2.5734971855545883	1.5441739117608837	6.953318701104057
N	-1.4581350375828772	1.5308116945461359	6.156569300620219
C	-0.4176481922031457	2.9385705186094224	4.43156169850387
C	0.7164130929632526	2.1744156651391795	4.140239267892268
C	1.7165382063721708	2.561027074027668	3.1502649371105216
C	2.6502754937938278	1.5808503187707834	3.1530260957927023
C	2.21268731343752	0.6036763168729512	4.144680567068215
N	1.0431632827641981	0.9891691452199485	4.723383676045569
C	-2.9198628351976152	0.565270384531103	7.880262630862953
C	-2.212568586921764	-0.6036970619971422	8.177187465801126
C	-2.6501597679276556	-1.5808825725016178	9.168825345902022
C	-1.716527987891685	-2.5611613966964293	9.171660426562502
N	-1.0429653948469189	-0.9893870176661701	7.5985161446503415
C	-0.7163825155128593	-2.17452477097911	8.181706165914985
C	0.41766300739023576	-2.9386282618763793	7.890376678869923
C	1.414786616386222	-2.6429482308403185	6.965379647443899
N	1.4579691264041408	-1.5306256997363568	6.165333396039681
C	2.5733893401971666	-1.5440525920490729	5.368536590460147
C	3.2856055967496056	-2.747281962528953	5.685593669643128
C	2.5828583975710986	-3.413799728585897	6.654080067542319
C	2.9199241574934804	-0.5652801320644308	4.44159551365294
H	-0.7601140716987774	0.7979741621340001	6.158698150900742
H	0.7599270899999101	-0.7977273098856574	6.16318452346526
H	-0.5414348474336108	3.865065082151068	3.88064843501427
H	3.8409332679953243	-0.7357700607948418	3.8938653069759885
H	0.5415414215851486	-3.8651804731750454	8.441263988613088
H	-3.8408221778376936	0.7356598961794509	8.428026706569494
H	-2.8361380510140703	4.354791131530604	5.200383066180166
H	-4.214493197818397	3.047436529517824	7.100124902755965
H	-3.5480789492102676	-1.5095496328433873	9.768395184851576
H	-1.690632269839061	-3.4597127847344002	9.774076060798702
H	2.8363484941701658	-4.354733613589037	7.121318756447845
H	4.214451630374051	-3.0476864893719147	5.221966986190689
H	3.548238930448354	1.509520783516021	2.5533979939819593
H	1.6906809172519726	3.4595379851443364	2.5479013836778335
