76
98b_H_capped cofacial 4.0A
C	-3.4280010313181797	2.6112867167488742	-5.413294561154788e-07
C	-2.4353573713181795	3.555114936748874	9.348670543884521e-06
C	-1.1741274613181798	2.8733580967488743	2.125867054388452e-05
C	-2.8106745013181795	1.317312616748874	-1.352132945611548e-05
N	-1.4568266813181798	1.5320612067488741	9.338670543884521e-06
C	0.10001764868182006	3.433714366748874	-1.720132945611548e-05
C	1.3212780486818203	2.752965196748874	-6.761329456115479e-06
C	2.6177343886818205	3.423016506748874	-8.10132945611548e-06
C	3.55064178868182	2.442045966748874	3.818670543884522e-06
C	2.81622089868182	1.180952396748874	7.286705438845212e-07
N	1.4734719286818203	1.400756106748874	2.618670543884521e-06
C	-3.43450633131818	0.07301354674887417	-5.251329456115479e-06
C	-2.81610081131818	-1.180975693251126	2.772867054388452e-05
C	-3.5505140813181795	-2.442070613251126	5.748670543884522e-06
C	-2.6177188913181797	-3.423149633251126	-3.386132945611548e-05
N	-1.4732721913181797	-1.4009760632511261	-7.581329456115478e-06
C	-1.3212592513181798	-2.7530894232511263	1.7186705438845213e-06
C	-0.10001611131817967	-3.4337886632511263	2.421867054388452e-05
C	1.1739984186818204	-2.8732633232511255	-8.711329456115479e-06
N	1.4566577086818202	-1.531881993251126	-7.713294561154788e-07
C	2.81058839868182	-1.3171743532511258	-1.337132945611548e-05
C	3.4278882586818202	-2.611190963251126	2.4458670543884522e-05
C	2.43525508868182	-3.554983763251126	-1.823132945611548e-05
C	3.4345812386818206	-0.07301415325112615	2.7586705438845213e-06
H	-0.7594444813181798	0.798612696748874	1.491867054388452e-05
H	0.7592589886818204	-0.7983682732511261	-1.5313294561154787e-06
H	0.14112888868182027	4.517933256748874	9.008670543884521e-06
H	4.51954490868182	-0.08668205325112588	-1.9313294561154787e-06
H	-0.1410279313181797	-4.518057873251125	-1.6313294561154786e-06
H	-4.51943046131818	0.08657124674887395	-2.6132945611547876e-07
H	-2.5486066013181796	4.629812146748874	-1.264132945611548e-05
H	-4.49561727131818	2.778540296748874	-4.511329456115478e-06
H	-4.62790231131818	-2.542399263251126	1.2586705438845212e-06
H	-2.77215347131818	-4.494186393251127	-6.301329456115479e-06
H	2.54887785868182	-4.629700313251126	8.68867054388452e-06
H	4.495520728681821	-2.778846693251126	-2.6813294561154787e-06
H	4.628096778681821	2.5423995467488743	-8.61132945611548e-06
H	2.7721808286818206	4.4939873767488745	1.0186705438845212e-06
C	-3.428001337288869	2.6112876748840455	3.999999458670418
C	-2.4353576772888688	3.5551158948840453	4.000009348670417
C	-1.1741277672888688	2.8733590548840455	4.000021258670418
C	-2.8106748072888688	1.3173135748840452	3.999986478670418
N	-1.4568269872888688	1.5320621648840453	4.000009338670417
C	0.10001734271113098	3.4337153248840453	3.999982798670418
C	1.3212777427111313	2.7529661548840454	3.9999932386704176
C	2.6177340827111313	3.4230174648840452	3.9999918986704177
C	3.550641482711131	2.4420469248840453	4.000003818670418
C	2.816220592711131	1.1809533548840452	4.000000728670417
N	1.4734716227111313	1.4007570648840453	4.000002618670417
C	-3.434506637288869	0.07301450488404544	3.9999947486704177
C	-2.816101117288869	-1.1809747351159547	4.000027728670418
C	-3.5505143872888687	-2.442069655115955	4.000005748670418
C	-2.617719197288869	-3.423148675115955	3.999966138670418
N	-1.4732724972888687	-1.400975105115955	3.9999924186704177
C	-1.3212595572888688	-2.753088465115955	4.0000017186704175
C	-0.10001641728886874	-3.433787705115955	4.000024218670418
C	1.1739981127111314	-2.8732623651159543	3.999991288670418
N	1.4566574027111312	-1.5318810351159549	3.9999992286704176
C	2.810588092711131	-1.3171733951159545	3.9999866286704178
C	3.427887952711131	-2.611190005115955	4.000024458670418
C	2.4352547827111306	-3.5549828051159547	3.9999817686704175
C	3.4345809327111314	-0.07301319511595487	4.000002758670417
H	-0.7594447872888689	0.7986136548840453	4.000014918670418
H	0.7592586827111313	-0.7983673151159548	3.9999984686704178
H	0.14112858271113118	4.517934214884045	4.000009008670418
H	4.5195446027111315	-0.0866810951159546	3.999998068670418
H	-0.1410282372888688	-4.518056915115954	3.999998368670418
H	-4.519430767288869	0.08657220488404523	3.9999997386704176
H	-2.548606907288869	4.629813104884045	3.9999873586704178
H	-4.4956175772888685	2.778541254884045	3.9999954886704177
H	-4.627902617288869	-2.5423983051159547	4.000001258670418
H	-2.772153777288869	-4.494185435115956	3.999993698670418
H	2.5488775527111307	-4.629699355115955	4.000008688670418
H	4.495520422711132	-2.778845735115955	3.9999973186704176
H	4.628096472711132	2.5424005048840455	3.9999913886704177
H	2.7721805227111314	4.493988334884046	4.000001018670417
