76
98b_H_capped TS45.0
C	-3.4280010313181797	2.6112867167488742	-5.413294561154788e-07
C	-2.4353573713181795	3.555114936748874	9.348670543884521e-06
C	-1.1741274613181798	2.8733580967488743	2.125867054388452e-05
C	-2.8106745013181795	1.317312616748874	-1.352132945611548e-05
N	-1.4568266813181798	1.5320612067488741	9.338670543884521e-06
C	0.10001764868182006	3.433714366748874	-1.720132945611548e-05
C	1.3212780486818203	2.752965196748874	-6.761329456115479e-06
C	2.6177343886818205	3.423016506748874	-8.10132945611548e-06
C	3.55064178868182	2.442045966748874	3.818670543884522e-06
C	2.81622089868182	1.180952396748874	7.286705438845212e-07
N	1.4734719286818203	1.400756106748874	2.618670543884521e-06
C	-3.43450633131818	0.07301354674887417	-5.251329456115479e-06
C	-2.81610081131818	-1.180975693251126	2.772867054388452e-05
C	-3.5505140813181795	-2.442070613251126	5.748670543884522e-06
C	-2.6177188913181797	-3.423149633251126	-3.386132945611548e-05
N	-1.4732721913181797	-1.4009760632511261	-7.581329456115478e-06
C	-1.3212592513181798	-2.7530894232511263	1.7186705438845213e-06
C	-0.10001611131817967	-3.4337886632511263	2.421867054388452e-05
C	1.1739984186818204	-2.8732633232511255	-8.711329456115479e-06
N	1.4566577086818202	-1.531881993251126	-7.713294561154788e-07
C	2.81058839868182	-1.3171743532511258	-1.337132945611548e-05
C	3.4278882586818202	-2.611190963251126	2.4458670543884522e-05
C	2.43525508868182	-3.554983763251126	-1.823132945611548e-05
C	3.4345812386818206	-0.07301415325112615	2.7586705438845213e-06
H	-0.7594444813181798	0.798612696748874	1.491867054388452e-05
H	0.7592589886818204	-0.7983682732511261	-1.5313294561154787e-06
H	0.14112888868182027	4.517933256748874	9.008670543884521e-06
H	4.51954490868182	-0.08668205325112588	-1.9313294561154787e-06
H	-0.1410279313181797	-4.518057873251125	-1.6313294561154786e-06
H	-4.51943046131818	0.08657124674887395	-2.6132945611547876e-07
H	-2.5486066013181796	4.629812146748874	-1.264132945611548e-05
H	-4.49561727131818	2.778540296748874	-4.511329456115478e-06
H	-4.62790231131818	-2.542399263251126	1.2586705438845212e-06
H	-2.77215347131818	-4.494186393251127	-6.301329456115479e-06
H	2.54887785868182	-4.629700313251126	8.68867054388452e-06
H	4.495520728681821	-2.778846693251126	-2.6813294561154787e-06
H	4.628096778681821	2.5423995467488743	-8.61132945611548e-06
H	2.7721808286818206	4.4939873767488745	1.0186705438845212e-06
C	-2.566259754609772	1.7103495432421565	-9.174732047744506
C	-1.5744448763985914	2.6550442408316983	-9.171847535737038
C	-0.5894559256286915	2.262092734874318	-8.207026746297736
C	-2.224624507879045	0.7046061002067507	-8.211806037469753
N	-1.0288233358839967	1.0845898352669838	-7.6598161867539405
C	0.5883888972924122	2.923129355317206	-7.87063847109214
C	1.5391496989602569	2.5251830219151907	-6.925869181309363
C	2.752214020098373	3.282419302353468	-6.634603035095231
C	3.4110494661785653	2.587986437375029	-5.677357889643509
C	2.594902593123501	1.4123360250535995	-5.391908374695278
N	1.4722108116734363	1.4020735999454317	-6.160508604896113
C	-2.943206323486702	-0.44063343380023795	-7.8808786862008295
C	-2.594815684467686	-1.4123266011480935	-6.937824735748713
C	-3.410946968649417	-2.587986694788188	-6.652384163847898
C	-2.7521987151701763	-3.282554195025307	-5.695174867145941
N	-1.4720678363157547	-1.4022361800828198	-6.169108715614508
C	-1.5391482988072687	-2.525291027292132	-5.403885549462294
C	-0.5884009314380156	-2.9231914304052666	-4.459141681801473
C	0.5893536168666027	-2.2620278785730665	-4.122899712092103
N	1.0287009838046164	-1.0844613301608825	-4.670175750288704
C	2.2245847696285583	-0.7045182772666974	-4.11814954482573
C	2.5661660252299265	-1.7102756665314236	-3.155178919466775
C	1.574381382459484	-2.654955587640785	-3.158099596792669
C	2.943272821253013	0.4406396520220547	-4.4489099858322465
H	-0.5363383550195071	0.5653579641826981	-6.944172799722095
H	0.5362089792114713	-0.5651741772720769	-5.385857125163667
H	0.7823575004529233	3.847538411343329	-8.404553084395602
H	3.8744124437712246	0.5877922383886465	-3.911640875949184
H	-0.7822915650080072	-3.8476283803847195	-3.9251525081954237
H	-3.8743282082044854	-0.5878734263294455	-8.418071947057712
H	-1.5146054626775503	3.548780149122894	-9.77637615586794
H	-3.460005404372258	1.695824309434126	-9.782009518974725
H	-4.352244648791041	-2.8305957539699	-7.1277059053414655
H	-3.0417302269336197	-4.212349357063476	-5.223346252205071
H	1.5148579975531187	-3.548650708944655	-2.5533750361553387
H	3.459882003913862	-1.6961045938983355	-2.547710018466767
H	4.352416481262846	2.830617734502367	-5.202028221713094
H	3.041728164616754	4.2121791309791305	-7.106366247414902
