60
51a TL90.0
C	-1.0763640616872703	-0.8594850642169367	-1.1874440870804897e-05
C	-1.2970615516872703	0.5413858757830633	7.715559129195104e-06
C	-0.19904734168727034	1.4061093157830633	-5.444087080489537e-08
C	1.0764907083127295	0.8598940857830633	6.965559129195105e-06
C	1.2970996483127295	-0.5409746342169368	-2.0264440870804894e-05
C	0.1991371383127296	-1.4056775742169367	1.3455559129195105e-05
S	2.5895162383127297	1.7750406957830633	-1.9344408708048955e-06
C	3.5287468983127295	0.27874387578306326	-5.044408708048954e-07
C	2.7117865783127297	-0.8713206142169367	7.4255591291951055e-06
S	-2.5891594316872704	-1.7748853242169367	1.5155591291951045e-06
C	-3.528579731687271	-0.27878171421693676	2.105559129195105e-06
C	-2.7118677716872703	0.8714856957830632	-3.034440870804895e-06
C	4.91989570831273	0.1861495857830633	1.5655591291951045e-06
C	5.50217190831273	-1.0757273342169367	-2.4244408708048954e-06
C	4.70744542831273	-2.2299698042169367	4.185559129195104e-06
C	3.3233681983127297	-2.1324610842169367	-5.9144408708048955e-06
C	-3.3238859016872704	2.1324365457830634	-1.0944408708048955e-06
C	-4.70801682168727	2.229512805783063	2.765559129195105e-06
C	-5.50241457168727	1.0750402957830634	-4.124440870804896e-06
C	-4.9197385916872705	-0.1866276042169367	5.045559129195105e-06
H	-2.7173078216872706	3.0327036957830633	-2.4344408708048953e-06
H	-5.17916121168727	3.2065804657830634	-2.4444408708048953e-06
H	-6.58376483168727	1.1640086757830632	2.8355591291951046e-06
H	-5.53609669168727	-1.0794209642169368	-2.7444408708048953e-06
H	0.3418386783127296	-2.481046264216937	-4.2244408708048956e-06
H	2.7164724783127294	-3.0325119142169368	-2.0444087080489536e-07
H	5.17827642831273	-3.2071838742169367	-1.4844408708048955e-06
H	6.58348987831273	-1.1651058542169368	3.515559129195105e-06
H	5.53656240831273	1.0787320957830633	-1.7244408708048954e-06
H	-0.34171852168727035	2.4814878657830635	-8.844408708048954e-07
C	-0.9556318943165173	0.11803782121929503	-6.531610311558257
C	-1.343434230391793	0.1659144331834297	-5.168355400995326
C	-0.36711168895654384	0.045339474032675624	-4.175562468194663
C	0.9557087592254172	-0.1180453470737319	-4.561308312805773
C	1.3434245421638231	-0.16590357105916645	-5.924571874220533
C	0.36714724924135245	-0.045360347593747845	-6.91733812442635
S	2.334673206901352	-0.2883483110675466	-3.4676019880520887
C	3.441819003097088	-0.42509014393492534	-4.837488210823298
C	2.7770397739464037	-0.34299316418225007	-6.079019989748693
S	-2.3343393335138733	0.28830451871969687	-7.625540161459508
C	-3.441648663665347	0.4250645138472169	-6.255868937041148
C	-2.7771390904995124	0.3429980273306159	-5.014166211303884
C	4.8233300044194065	-0.5957186787947124	-4.758862703344399
C	5.550367604988821	-0.6855089808191459	-5.939850833408236
C	4.9079965759271325	-0.6061782433609676	-7.182803749944157
C	3.532854040430199	-0.4363281683799833	-7.255685080053736
C	-3.5333588435154755	0.4363945986221253	-3.837742816778066
C	-4.908503363972435	0.6062308526897935	-3.911059926868356
C	-5.550520962615172	0.6855315415486298	-5.15420085426869
C	-4.823116629427795	0.5956826854421432	-6.334932537065439
H	-3.0454134170193514	0.3761312130083039	-2.869912514698574
H	-5.491430223190951	0.6782317215630536	-2.9991112440157384
H	-6.6264481014065355	0.8184091941084355	-5.1984510401751605
H	-5.321603212994079	0.6572571784095359	-7.29654420451577
H	0.6385273627843664	-0.07885991031500497	-7.967105795167898
H	3.0445688950682164	-0.376027228270286	-8.223339628439328
H	5.4906338984418355	-0.6781323897211932	-8.094936152851533
H	6.626311251951615	-0.8184016702717017	-5.89601165266698
H	5.32214755972467	-0.6573228849419938	-3.797422468924257
H	-0.6384608292628108	0.07885386198012308	-3.1257812903966697
