60
51a PD long
C	-1.0763640616872703	-0.8594850642169367	-1.1874440870804897e-05
C	-1.2970615516872703	0.5413858757830633	7.715559129195104e-06
C	-0.19904734168727034	1.4061093157830633	-5.444087080489537e-08
C	1.0764907083127295	0.8598940857830633	6.965559129195105e-06
C	1.2970996483127295	-0.5409746342169368	-2.0264440870804894e-05
C	0.1991371383127296	-1.4056775742169367	1.3455559129195105e-05
S	2.5895162383127297	1.7750406957830633	-1.9344408708048955e-06
C	3.5287468983127295	0.27874387578306326	-5.044408708048954e-07
C	2.7117865783127297	-0.8713206142169367	7.4255591291951055e-06
S	-2.5891594316872704	-1.7748853242169367	1.5155591291951045e-06
C	-3.528579731687271	-0.27878171421693676	2.105559129195105e-06
C	-2.7118677716872703	0.8714856957830632	-3.034440870804895e-06
C	4.91989570831273	0.1861495857830633	1.5655591291951045e-06
C	5.50217190831273	-1.0757273342169367	-2.4244408708048954e-06
C	4.70744542831273	-2.2299698042169367	4.185559129195104e-06
C	3.3233681983127297	-2.1324610842169367	-5.9144408708048955e-06
C	-3.3238859016872704	2.1324365457830634	-1.0944408708048955e-06
C	-4.70801682168727	2.229512805783063	2.765559129195105e-06
C	-5.50241457168727	1.0750402957830634	-4.124440870804896e-06
C	-4.9197385916872705	-0.1866276042169367	5.045559129195105e-06
H	-2.7173078216872706	3.0327036957830633	-2.4344408708048953e-06
H	-5.17916121168727	3.2065804657830634	-2.4444408708048953e-06
H	-6.58376483168727	1.1640086757830632	2.8355591291951046e-06
H	-5.53609669168727	-1.0794209642169368	-2.7444408708048953e-06
H	0.3418386783127296	-2.481046264216937	-4.2244408708048956e-06
H	2.7164724783127294	-3.0325119142169368	-2.0444087080489536e-07
H	5.17827642831273	-3.2071838742169367	-1.4844408708048955e-06
H	6.58348987831273	-1.1651058542169368	3.515559129195105e-06
H	5.53656240831273	1.0787320957830633	-1.7244408708048954e-06
H	-0.34171852168727035	2.4814878657830635	-8.844408708048954e-07
C	2.782643497071413	-1.3360996291475538	3.4999887047520826
C	2.561946007071413	0.06477131085244614	3.5000082947520825
C	3.659960217071413	0.9294947508524461	3.5000005247520827
C	4.935498267071414	0.3832795208524461	3.5000075447520826
C	5.156107207071414	-1.0175891991475539	3.4999803147520825
C	4.0581446970714135	-1.8822921391475538	3.5000140347520827
S	6.448523797071414	1.2984261308524463	3.4999986447520826
C	7.387754457071414	-0.1978706891475539	3.5000000747520827
C	6.570794137071414	-1.3479351791475538	3.5000080047520825
S	1.269848127071413	-2.2514998891475537	3.500002094752083
C	0.3304278270714125	-0.7553962791475539	3.500002684752083
C	1.147139787071413	0.3948711308524461	3.4999975447520826
C	8.778903267071414	-0.29046497914755387	3.5000021447520826
C	9.361179467071413	-1.5523418991475537	3.499998154752083
C	8.566452987071413	-2.7065843691475537	3.5000047647520827
C	7.182375757071413	-2.6090756491475537	3.4999946647520828
C	0.535121657071413	1.6558219808524464	3.499999484752083
C	-0.8490092629285866	1.752898240852446	3.500003344752083
C	-1.6434070129285865	0.5984257308524462	3.4999964547520825
C	-1.060731032928587	-0.6632421691475539	3.5000056247520828
H	1.1416997370714128	2.5560891308524463	3.499998144752083
H	-1.3201536529285867	2.7299659008524464	3.4999981347520825
H	-2.7247572729285863	0.6873941108524461	3.500003414752083
H	-1.6770891329285864	-1.5560355291475538	3.4999978347520826
H	4.2008462370714135	-2.957660829147554	3.4999963547520827
H	6.575480037071413	-3.509126479147554	3.5000003747520827
H	9.037283987071412	-3.683798439147554	3.499999094752083
H	10.442497437071413	-1.6417204191475538	3.5000040947520827
H	9.395569967071413	0.6021175308524461	3.4999988547520826
H	3.517289037071413	2.0048733008524464	3.499999694752083
