60
51a PD short
C	-1.0763640616872703	-0.8594850642169367	-1.1874440870804897e-05
C	-1.2970615516872703	0.5413858757830633	7.715559129195104e-06
C	-0.19904734168727034	1.4061093157830633	-5.444087080489537e-08
C	1.0764907083127295	0.8598940857830633	6.965559129195105e-06
C	1.2970996483127295	-0.5409746342169368	-2.0264440870804894e-05
C	0.1991371383127296	-1.4056775742169367	1.3455559129195105e-05
S	2.5895162383127297	1.7750406957830633	-1.9344408708048955e-06
C	3.5287468983127295	0.27874387578306326	-5.044408708048954e-07
C	2.7117865783127297	-0.8713206142169367	7.4255591291951055e-06
S	-2.5891594316872704	-1.7748853242169367	1.5155591291951045e-06
C	-3.528579731687271	-0.27878171421693676	2.105559129195105e-06
C	-2.7118677716872703	0.8714856957830632	-3.034440870804895e-06
C	4.91989570831273	0.1861495857830633	1.5655591291951045e-06
C	5.50217190831273	-1.0757273342169367	-2.4244408708048954e-06
C	4.70744542831273	-2.2299698042169367	4.185559129195104e-06
C	3.3233681983127297	-2.1324610842169367	-5.9144408708048955e-06
C	-3.3238859016872704	2.1324365457830634	-1.0944408708048955e-06
C	-4.70801682168727	2.229512805783063	2.765559129195105e-06
C	-5.50241457168727	1.0750402957830634	-4.124440870804896e-06
C	-4.9197385916872705	-0.1866276042169367	5.045559129195105e-06
H	-2.7173078216872706	3.0327036957830633	-2.4344408708048953e-06
H	-5.17916121168727	3.2065804657830634	-2.4444408708048953e-06
H	-6.58376483168727	1.1640086757830632	2.8355591291951046e-06
H	-5.53609669168727	-1.0794209642169368	-2.7444408708048953e-06
H	0.3418386783127296	-2.481046264216937	-4.2244408708048956e-06
H	2.7164724783127294	-3.0325119142169368	-2.0444087080489536e-07
H	5.17827642831273	-3.2071838742169367	-1.4844408708048955e-06
H	6.58348987831273	-1.1651058542169368	3.515559129195105e-06
H	5.53656240831273	1.0787320957830633	-1.7244408708048954e-06
H	-0.34171852168727035	2.4814878657830635	-8.844408708048954e-07
C	-1.3078288730443743	-2.7335794245587404	3.499988628771945
C	-1.5285263630443744	-1.33270848455874	3.500008218771945
C	-0.4305121530443744	-0.46798504455874024	3.5000004487719445
C	0.8450258969556255	-1.0142002745587402	3.5000074687719445
C	1.0656348369556254	-2.4150689945587405	3.4999802387719448
C	-0.03232767304437441	-3.2797719345587404	3.5000139587719445
S	2.3580514269556256	-0.0990536645587402	3.499998568771945
C	3.2972820869556254	-1.59535048455874	3.4999999987719446
C	2.4803217669556257	-2.74541497455874	3.5000079287719448
S	-2.8206242430443744	-3.64897968455874	3.5000020187719447
C	-3.760044543044375	-2.15287607455874	3.5000026087719447
C	-2.9433325830443744	-1.0026086645587402	3.499997468771945
C	4.6884308969556265	-1.6879447745587401	3.5000020687719444
C	5.2707070969556264	-2.94982169455874	3.4999980787719447
C	4.475980616955627	-4.10406416455874	3.5000046887719445
C	3.0919033869556256	-4.006555444558741	3.4999945887719446
C	-3.5553507130443744	0.25834218544125986	3.4999994087719446
C	-4.939481633044373	0.35541844544125956	3.5000032687719447
C	-5.733879383044373	-0.7990540645587402	3.499996378771945
C	-5.151203403044374	-2.06072196455874	3.5000055487719446
H	-2.9487726330443746	1.1586093354412599	3.4999980687719447
H	-5.410626023044373	1.33248610544126	3.499998058771945
H	-6.815229643044373	-0.7100856845587403	3.5000033387719447
H	-5.767561503044373	-2.95351532455874	3.4999977587719444
H	0.11037386695562561	-4.35514062455874	3.4999962787719445
H	2.4850076669556254	-4.906606274558741	3.5000002987719445
H	4.946811616955626	-5.081278234558741	3.4999990187719447
H	6.352025066955627	-3.0392002145587402	3.5000040187719446
H	5.305097596955627	-0.7953622645587403	3.4999987787719444
H	-0.5731833330443744	0.6073935054412599	3.4999996187719447
