60
51a TS45.0
C	-1.0763640616872703	-0.8594850642169367	-1.1874440870804897e-05
C	-1.2970615516872703	0.5413858757830633	7.715559129195104e-06
C	-0.19904734168727034	1.4061093157830633	-5.444087080489537e-08
C	1.0764907083127295	0.8598940857830633	6.965559129195105e-06
C	1.2970996483127295	-0.5409746342169368	-2.0264440870804894e-05
C	0.1991371383127296	-1.4056775742169367	1.3455559129195105e-05
S	2.5895162383127297	1.7750406957830633	-1.9344408708048955e-06
C	3.5287468983127295	0.27874387578306326	-5.044408708048954e-07
C	2.7117865783127297	-0.8713206142169367	7.4255591291951055e-06
S	-2.5891594316872704	-1.7748853242169367	1.5155591291951045e-06
C	-3.528579731687271	-0.27878171421693676	2.105559129195105e-06
C	-2.7118677716872703	0.8714856957830632	-3.034440870804895e-06
C	4.91989570831273	0.1861495857830633	1.5655591291951045e-06
C	5.50217190831273	-1.0757273342169367	-2.4244408708048954e-06
C	4.70744542831273	-2.2299698042169367	4.185559129195104e-06
C	3.3233681983127297	-2.1324610842169367	-5.9144408708048955e-06
C	-3.3238859016872704	2.1324365457830634	-1.0944408708048955e-06
C	-4.70801682168727	2.229512805783063	2.765559129195105e-06
C	-5.50241457168727	1.0750402957830634	-4.124440870804896e-06
C	-4.9197385916872705	-0.1866276042169367	5.045559129195105e-06
H	-2.7173078216872706	3.0327036957830633	-2.4344408708048953e-06
H	-5.17916121168727	3.2065804657830634	-2.4444408708048953e-06
H	-6.58376483168727	1.1640086757830632	2.8355591291951046e-06
H	-5.53609669168727	-1.0794209642169368	-2.7444408708048953e-06
H	0.3418386783127296	-2.481046264216937	-4.2244408708048956e-06
H	2.7164724783127294	-3.0325119142169368	-2.0444087080489536e-07
H	5.17827642831273	-3.2071838742169367	-1.4844408708048955e-06
H	6.58348987831273	-1.1651058542169368	3.515559129195105e-06
H	5.53656240831273	1.0787320957830633	-1.7244408708048954e-06
H	-0.34171852168727035	2.4814878657830635	-8.844408708048954e-07
C	-0.7964576512670309	-0.894053773040958	6.588050020110559
C	-0.903585242956141	0.4927903841963789	6.311764414897215
C	-0.09152375364235828	1.3928312520580457	7.00736804259048
C	0.7965641056460541	0.8944691920680533	7.9498560297171545
C	0.903634134007752	-0.4923765722648883	8.226073898078779
C	0.09159194900900006	-1.3923929390165846	7.530523124728112
S	1.9057066528846434	1.859498552173367	8.932332857100532
C	2.5206611092974214	0.40325241397311656	9.721152613282586
C	1.8984045346373675	-0.7708595320689882	9.24751732201946
S	-1.9054486266534951	-1.8593270768894228	5.605759873020788
C	-2.520546315140701	-0.4032798804369584	4.816825207013466
C	-1.8984611782349883	0.7710254850965181	5.2902705904125
C	3.5071732097917683	0.36063396530066877	10.70545249518865
C	3.8765082629240735	-0.8749430349956971	11.223448662353464
C	3.2699232931142843	-2.0524224729748375	10.765777705064531
C	2.2886234145649555	-2.0046599488384698	9.786008845164545
C	-2.2889893943541817	2.0046205748986314	4.751481109818215
C	-3.2703526793817184	2.0519518390895874	3.7717219260385564
C	-3.876702477882317	0.8742539163576861	3.3142920557311157
C	-3.507084766114365	-0.3610995985287851	3.832559967190549
H	-1.8253264413574195	2.9225388760251376	5.099131173794557
H	-3.5707581286994006	3.0079318864073104	3.3563943882757243
H	-4.642926129865547	0.9243016621388094	2.547721579014172
H	-3.9774335724374104	-1.2719262637631956	3.477392292078029
H	0.15482138569880488	-2.4579461942433998	7.723861811686254
H	1.8247390992250663	-2.9223738210211745	9.438120210173864
H	3.570108181720256	-3.008560395439714	11.180890310361317
H	4.642685273847901	-0.9253991483141456	11.990041149062158
H	3.9777418502381896	1.2712607438304724	11.060847178478163
H	-0.15471824779880589	2.458393801315604	6.8140367183529715
