76
133a cofacial 3.5A
C	-2.4426685443265237	1.454474300161193	1.3065554493502786e-05
C	-2.4485202843265235	2.851163730161193	-4.184445506497215e-06
C	-1.2592229143265232	3.554131600161193	-3.8384445506497216e-05
C	-0.029580414326523474	2.856468980161193	0.00010735555449350278
C	-0.014792584326523528	1.429138340161193	-0.0001285744455064972
C	-1.2566748443265237	0.7218537901611932	5.524555449350279e-05
C	1.1853368156734767	3.579464360161193	-5.477444550649721e-05
C	2.3889413956734766	2.901280210161193	-4.374445506497215e-06
C	2.412027905673477	1.504772710161193	1.3665554493502785e-05
C	1.2414622656734764	0.7477282101611931	5.5285554493502787e-05
C	-1.2853854043265232	5.031786460161193	1.7655554493502786e-05
O	-0.058844774326523464	5.680027510161192	-1.4234445506497215e-05
C	1.1808678356734768	5.057348170161193	2.9155554493502788e-05
O	2.1594146056734767	5.745789880161193	-2.8844455064972147e-06
O	-2.277991764326523	5.699796600161193	-5.314445506497214e-06
H	-3.3828248443265236	3.399895400161193	5.285554493502785e-06
H	-3.398523904326524	0.947662410161193	-2.0594445506497212e-05
H	3.3116954256734767	3.469218180161193	7.3555544935027855e-06
H	3.3781887656734764	1.017896220161193	-2.0854445506497213e-05
C	-1.2414617543265232	-0.7477283398388068	-5.912444550649722e-05
C	1.2566754756734766	-0.721854029838807	-4.3794445506497213e-05
C	-2.4120274143265235	-1.5047725698388073	-1.1914445506497215e-05
C	-2.3889413643265236	-2.9012799498388073	7.675554493502785e-06
C	-1.1853366943265238	-3.579464149838807	5.000555449350278e-05
C	0.029580725673476582	-2.856469159838807	-0.00010208444550649722
C	0.014793115673476631	-1.4291383998388074	0.00012299555449350277
C	2.4426691256734765	-1.4544747498388073	-2.3404445506497214e-05
C	2.4485204656734765	-2.8511642098388066	1.8775554493502785e-05
C	1.2592231356734764	-3.554132159838807	1.8715554493502786e-05
C	-1.1808684443265234	-5.057348029838807	-2.2484445506497213e-05
O	0.05884407567347649	-5.680027409838806	5.575554493502786e-06
C	1.2853850956734765	-5.031787149838807	-3.004445506497215e-06
O	2.2779916456734766	-5.699796469838806	1.555544935027854e-07
O	-2.159415924326524	-5.745788509838808	7.165554493502786e-06
H	-3.3781883643265234	-1.017896089838807	2.0315554493502788e-05
H	-3.311695214326523	-3.469217979838807	-1.1384445506497215e-05
H	3.3985248656734766	-0.9476633498388072	1.8635554493502787e-05
H	3.3828250456734765	-3.3998959398388067	-8.174445506497214e-06
C	-2.4426680666390346	1.4544736353513374	3.500013065554398
C	-2.4485198066390343	2.8511630653513373	3.499995815554398
C	-1.259222436639034	3.5541309353513375	3.499961615554398
C	-0.029579936639034334	2.8564683153513375	3.5001073555543982
C	-0.014792106639034389	1.4291376753513374	3.499871425554398
C	-1.2566743666390345	0.7218531253513376	3.500055245554398
C	1.1853372933609658	3.5794636953513375	3.499945225554398
C	2.3889418733609658	2.9012795453513376	3.499995625554398
C	2.412028383360966	1.5047720453513374	3.500013665554398
C	1.2414627433609655	0.7477275453513375	3.500055285554398
C	-1.285384926639034	5.031785795351337	3.500017655554398
O	-0.05884429663903432	5.680026845351336	3.499985765554398
C	1.1808683133609659	5.057347505351337	3.500029155554398
O	2.1594150833609658	5.745789215351337	3.499997115554398
O	-2.277991286639034	5.699795935351337	3.499994685554398
H	-3.3828243666390345	3.3998947353513373	3.500005285554398
H	-3.3985234266390347	0.9476617453513374	3.4999794055543982
H	3.311695903360966	3.4692175153513376	3.500007355554398
H	3.3781892433609655	1.0178955553513374	3.499979145554398
C	-1.241461276639034	-0.7477290046486624	3.499940875554398
C	1.2566759533609657	-0.7218546946486626	3.499956205554398
C	-2.4120269366390343	-1.5047732346486629	3.499988085554398
C	-2.3889408866390345	-2.901280614648663	3.500007675554398
C	-1.1853362166390347	-3.5794648146486625	3.500050005554398
C	0.029581203360965723	-2.8564698246486624	3.499897915554398
C	0.01479359336096577	-1.429139064648663	3.500122995554398
C	2.4426696033609656	-1.454475414648663	3.499976595554398
C	2.4485209433609656	-2.851164874648662	3.500018775554398
C	1.2592236133609656	-3.5541328246486628	3.500018715554398
C	-1.1808679666390343	-5.057348694648663	3.499977515554398
O	0.05884455336096563	-5.680028074648662	3.500005575554398
C	1.2853855733609656	-5.031787814648663	3.499996995554398
O	2.2779921233609657	-5.699797134648662	3.500000155554398
O	-2.1594154466390347	-5.745789174648664	3.500007165554398
H	-3.3781878866390342	-1.0178967546486626	3.500020315554398
H	-3.311694736639034	-3.4692186446486626	3.499988615554398
H	3.3985253433609657	-0.9476640146486628	3.500018635554398
H	3.3828255233609656	-3.3998966046486623	3.499991825554398
