76
133a TS90.0
C	-2.4426685443265237	1.454474300161193	1.3065554493502786e-05
C	-2.4485202843265235	2.851163730161193	-4.184445506497215e-06
C	-1.2592229143265232	3.554131600161193	-3.8384445506497216e-05
C	-0.029580414326523474	2.856468980161193	0.00010735555449350278
C	-0.014792584326523528	1.429138340161193	-0.0001285744455064972
C	-1.2566748443265237	0.7218537901611932	5.524555449350279e-05
C	1.1853368156734767	3.579464360161193	-5.477444550649721e-05
C	2.3889413956734766	2.901280210161193	-4.374445506497215e-06
C	2.412027905673477	1.504772710161193	1.3665554493502785e-05
C	1.2414622656734764	0.7477282101611931	5.5285554493502787e-05
C	-1.2853854043265232	5.031786460161193	1.7655554493502786e-05
O	-0.058844774326523464	5.680027510161192	-1.4234445506497215e-05
C	1.1808678356734768	5.057348170161193	2.9155554493502788e-05
O	2.1594146056734767	5.745789880161193	-2.8844455064972147e-06
O	-2.277991764326523	5.699796600161193	-5.314445506497214e-06
H	-3.3828248443265236	3.399895400161193	5.285554493502785e-06
H	-3.398523904326524	0.947662410161193	-2.0594445506497212e-05
H	3.3116954256734767	3.469218180161193	7.3555544935027855e-06
H	3.3781887656734764	1.017896220161193	-2.0854445506497213e-05
C	-1.2414617543265232	-0.7477283398388068	-5.912444550649722e-05
C	1.2566754756734766	-0.721854029838807	-4.3794445506497213e-05
C	-2.4120274143265235	-1.5047725698388073	-1.1914445506497215e-05
C	-2.3889413643265236	-2.9012799498388073	7.675554493502785e-06
C	-1.1853366943265238	-3.579464149838807	5.000555449350278e-05
C	0.029580725673476582	-2.856469159838807	-0.00010208444550649722
C	0.014793115673476631	-1.4291383998388074	0.00012299555449350277
C	2.4426691256734765	-1.4544747498388073	-2.3404445506497214e-05
C	2.4485204656734765	-2.8511642098388066	1.8775554493502785e-05
C	1.2592231356734764	-3.554132159838807	1.8715554493502786e-05
C	-1.1808684443265234	-5.057348029838807	-2.2484445506497213e-05
O	0.05884407567347649	-5.680027409838806	5.575554493502786e-06
C	1.2853850956734765	-5.031787149838807	-3.004445506497215e-06
O	2.2779916456734766	-5.699796469838806	1.555544935027854e-07
O	-2.159415924326524	-5.745788509838808	7.165554493502786e-06
H	-3.3781883643265234	-1.017896089838807	2.0315554493502788e-05
H	-3.311695214326523	-3.469217979838807	-1.1384445506497215e-05
H	3.3985248656734766	-0.9476633498388072	1.8635554493502787e-05
H	3.3828250456734765	-3.3998959398388067	-8.174445506497214e-06
C	-2.4273438173409527	-0.025128639104532235	-10.552811479362731
C	-2.4187291859603706	-0.025056656078239314	-11.949486599058408
C	-1.222278387895149	-0.0126975205799022	-12.6400985025829
C	4.96542443651027e-06	0.00010914897374523712	-11.929737169313391
C	1.0735597571783622e-05	-0.00012673391334610236	-10.502329926867196
C	-1.2490655687883014	-0.01288135837036801	-9.807946227794492
C	1.222281625681504	0.012607862681586946	-12.640110148448178
C	2.418732579179276	0.025051604328468084	-11.94949593051138
C	2.427352744882217	0.025158936574735558	-10.552824220320073
C	1.2490715166851363	0.012995429471758373	-9.807944571897309
C	-1.23313452465236	-0.012753929974536745	-14.117945079673294
O	-1.129379623574645e-05	-1.261596894079944e-05	-14.753447348279185
C	1.2331187539527793	0.01280405268740125	-14.117960970705592
O	2.2186910915161118	0.022980981086933104	-14.796230362415123
O	-2.2187155512916763	-0.022985961330243852	-14.796200399627228
H	-3.3472503749695623	-0.03466519605159723	-12.50786598093779
H	-3.3883453519125606	-0.035116756383758045	-10.055927136398164
H	3.3472696472008576	0.034681509920607825	-12.507845924703846
H	3.388367712155562	0.03507900933783059	-10.055966745851512
C	-1.249073443609721	-0.012995816076689768	-8.338285357103363
C	1.2490636023398551	0.012896262176294136	-8.338283589969171
C	-2.427354746908706	-0.02515373365771728	-7.593405978873268
C	-2.418735055968257	-0.02504485624608529	-6.196734393440016
C	-1.2222839294100443	-0.012609183239502855	-5.506120124573717
C	-7.187205541453633e-06	-0.00010042814419977161	-6.216492711761482
C	-1.2623776629439115e-05	0.00012460761641133744	-7.64390007192257
C	2.42734202442071	0.025121753538968502	-7.593418128930074
C	2.4187267345508254	0.025074695029187213	-6.196742983379044
C	1.2222763305131086	0.01268130177440641	-5.506130999444539
C	-1.233121906821939	-0.012793941427349178	-4.0282692398811
O	8.209308477135958e-06	7.397114907930815e-06	-3.3927828232418378
C	1.233131580498934	0.012772023824656437	-4.028284297850645
O	2.218713010799888	0.022984248298912966	-3.3500297958847804
O	-2.218694916814655	-0.02297326692040183	-3.35000108545948
H	-3.3883697805564617	-0.03507609723119778	-8.090263444274548
H	-3.3472718687074408	-0.034682089587135596	-5.638384337386403
H	3.3883438470777167	0.03511825425186487	-8.09030197798504
H	3.3472481239918803	0.034665756140953054	-5.638363541295728
