76
133a TL90.0
C	-2.4426685443265237	1.454474300161193	1.3065554493502786e-05
C	-2.4485202843265235	2.851163730161193	-4.184445506497215e-06
C	-1.2592229143265232	3.554131600161193	-3.8384445506497216e-05
C	-0.029580414326523474	2.856468980161193	0.00010735555449350278
C	-0.014792584326523528	1.429138340161193	-0.0001285744455064972
C	-1.2566748443265237	0.7218537901611932	5.524555449350279e-05
C	1.1853368156734767	3.579464360161193	-5.477444550649721e-05
C	2.3889413956734766	2.901280210161193	-4.374445506497215e-06
C	2.412027905673477	1.504772710161193	1.3665554493502785e-05
C	1.2414622656734764	0.7477282101611931	5.5285554493502787e-05
C	-1.2853854043265232	5.031786460161193	1.7655554493502786e-05
O	-0.058844774326523464	5.680027510161192	-1.4234445506497215e-05
C	1.1808678356734768	5.057348170161193	2.9155554493502788e-05
O	2.1594146056734767	5.745789880161193	-2.8844455064972147e-06
O	-2.277991764326523	5.699796600161193	-5.314445506497214e-06
H	-3.3828248443265236	3.399895400161193	5.285554493502785e-06
H	-3.398523904326524	0.947662410161193	-2.0594445506497212e-05
H	3.3116954256734767	3.469218180161193	7.3555544935027855e-06
H	3.3781887656734764	1.017896220161193	-2.0854445506497213e-05
C	-1.2414617543265232	-0.7477283398388068	-5.912444550649722e-05
C	1.2566754756734766	-0.721854029838807	-4.3794445506497213e-05
C	-2.4120274143265235	-1.5047725698388073	-1.1914445506497215e-05
C	-2.3889413643265236	-2.9012799498388073	7.675554493502785e-06
C	-1.1853366943265238	-3.579464149838807	5.000555449350278e-05
C	0.029580725673476582	-2.856469159838807	-0.00010208444550649722
C	0.014793115673476631	-1.4291383998388074	0.00012299555449350277
C	2.4426691256734765	-1.4544747498388073	-2.3404445506497214e-05
C	2.4485204656734765	-2.8511642098388066	1.8775554493502785e-05
C	1.2592231356734764	-3.554132159838807	1.8715554493502786e-05
C	-1.1808684443265234	-5.057348029838807	-2.2484445506497213e-05
O	0.05884407567347649	-5.680027409838806	5.575554493502786e-06
C	1.2853850956734765	-5.031787149838807	-3.004445506497215e-06
O	2.2779916456734766	-5.699796469838806	1.555544935027854e-07
O	-2.159415924326524	-5.745788509838808	7.165554493502786e-06
H	-3.3781883643265234	-1.017896089838807	2.0315554493502788e-05
H	-3.311695214326523	-3.469217979838807	-1.1384445506497215e-05
H	3.3985248656734766	-0.9476633498388072	1.8635554493502787e-05
H	3.3828250456734765	-3.3998959398388067	-8.174445506497214e-06
C	-0.015312655550895693	1.4796158781060489	8.686022987085877
C	-0.02979655245333516	2.8762158954241355	8.677408151628565
C	-0.03698405351170393	3.566790465059928	7.480893561115031
C	-0.029480456866415913	2.8564688179384214	6.258543085981309
C	-0.014931405547741847	1.4291357045566857	6.258539678223838
C	-0.007555224531762974	0.7347910884700648	7.507681048216179
C	-0.03700056469864924	3.5668020794872137	5.03620257407229
C	-0.02979684194566692	2.8762254993782714	3.8396868732844176
C	-0.015312190411124105	1.4796289005440653	3.831065978880583
C	-0.007555168853055654	0.7347895750744918	5.0094099448394465
C	-0.05223543171880265	5.044558343380858	7.491749783788736
O	-0.05884980178556526	5.68002626044823	6.258560766058872
C	-0.052224098385766714	5.044574492862896	5.025364079043506
O	-0.05928159669765377	5.722807223180262	4.039739238946856
O	-0.05928371360261127	5.722776984600044	8.477383960351306
H	-0.03557073084888653	3.43456536852968	9.605979086632498
H	-0.010199625379991912	0.9827577870716516	9.647076396899932
H	-0.03556845716052944	3.4345457153407177	2.911099902294616
H	-0.010200299627393206	0.9827977769072778	2.8699997853950814
C	0.007553039926612467	-0.7347921273662015	7.507690024614229
C	0.0075683859372764764	-0.7347935936202289	5.009418802383262
C	0.01531564838617337	-1.4796311247568346	8.686034007775485
C	0.029801848545333357	-2.876227582784929	8.677413572104072
C	0.036997502258751855	-3.5668042974090413	7.4808977818389035
C	0.029487437947681334	-2.8564713237927277	6.2585570839795155
C	0.014927535991770623	-1.4291382050858246	6.258560270505884
C	0.015304030295009024	-1.479618818414891	3.831076915685966
C	0.029812856127894447	-2.876218603364044	3.8396921514325473
C	0.03696609985701042	-3.56679360826784	5.03620670277683
C	0.05223247597887337	-5.044576654722025	7.4917370075535565
O	0.05884285060568399	-5.680028620157838	6.258540410947666
C	0.05225179751262114	-5.044561255601843	5.025351011421176
O	0.05928026198647657	-5.722779284067202	4.039716636375616
O	0.05928757160324359	-5.722808172573318	8.477362544872353
H	0.010201467819207	-0.9828000339064803	9.647100291359735
H	0.03556613479416405	-3.4345479365287406	9.60600036372498
H	0.01019938479043825	-0.9827611344642162	2.8700231309674864
H	0.035569556084742326	-3.4345683177267166	2.9111211970511386
