124
98c cofacial 4.5A
C	-3.4654879528458657	2.6177366508076774	-7.075715877399138e-05
C	-2.439915582845866	3.593142680807677	5.368284122600862e-05
C	-1.173978512845866	2.8933560308076776	-1.8877158773991383e-05
C	-2.830106342845866	1.3182936308076774	-8.117158773991383e-06
N	-1.478461592845866	1.5552923208076774	1.7172841226008616e-05
C	0.09880638715413426	3.441988530807677	-3.333715877399138e-05
C	1.3282846471541339	2.7784978508076774	2.4362841226008616e-05
C	2.6231721871541342	3.4643758108076774	-3.1271587739913828e-06
C	3.591563017154134	2.4443000208076775	-7.049715877399138e-05
C	2.839917477154134	1.1869905508076775	5.222841226008618e-06
N	1.501488787154134	1.4291832008076775	7.528412260086175e-07
C	-3.442258292845866	0.07480656080767734	4.776284122600862e-05
C	-2.841773342845866	-1.1866223391923225	-9.337715877399137e-05
C	-3.592180532845866	-2.4452226091923226	0.0001562928412260086
C	-2.622224722845866	-3.4638134491923225	-0.0001397871587739914
N	-1.502910522845866	-1.4276436991923225	2.0322841226008618e-05
C	-1.328601862845866	-2.7765930591923222	7.390284122600862e-05
C	-0.09945469284586617	-3.4404269591923224	-1.9447158773991383e-05
C	1.173210617154134	-2.8923317591923228	-2.3147158773991385e-05
N	1.477653197154134	-1.5543328491923227	-2.7577158773991385e-05
C	2.829243197154134	-1.3174978791923224	3.275284122600862e-05
C	3.464673517154134	-2.616937399192323	-2.9017158773991384e-05
C	2.439110807154134	-3.5922786391923225	5.992841226008618e-06
C	3.4408096571541344	-0.07408225919232247	8.362841226008619e-06
C	-2.757281192845866	4.957439170807677	2.2562841226008616e-05
C	-4.092366492845866	5.3258163808076775	-1.5127158773991382e-05
C	-5.113291622845866	4.354810440807677	-2.2277158773991384e-05
C	-4.812174342845866	3.0029635408076776	5.876284122600862e-05
C	3.0035819371541344	4.806863500807678	6.489284122600863e-05
C	4.361443997154134	5.1107376308076775	-4.947715877399138e-05
C	5.327344147154134	4.093003050807678	-8.887158773991382e-06
C	4.952217827154134	2.7531519608076773	6.598284122600862e-05
C	-4.9521518728458656	-2.757510199192322	-9.330715877399138e-05
C	-5.324031622845866	-4.098346829192322	5.089284122600862e-05
C	-4.3562790128458655	-5.114289039192323	-2.6057158773991386e-05
C	-2.999215192845866	-4.807147389192322	2.5732841226008615e-05
C	2.756292517154134	-4.956503469192323	-1.0867158773991382e-05
C	4.091416167154134	-5.3249129291923225	-2.6037158773991382e-05
C	5.112344377154134	-4.353926839192322	4.183284122600862e-05
C	4.811270187154134	-3.0020378491923223	1.2182841226008618e-05
H	-0.7803500428458658	0.8213873108076775	-5.075715877399138e-05
H	0.7795689271541342	-0.8203740291923225	5.277284122600862e-05
H	-1.979886782845866	5.714393020807678	-8.117158773991383e-06
H	-4.359698362845866	6.3774012708076775	1.3612841226008617e-05
H	-6.150169732845866	4.674444830807678	-9.707158773991383e-06
H	-5.607099332845866	2.2644364708076776	-8.707158773991382e-06
H	-5.712393392845867	-1.9823422091923222	2.1312841226008617e-05
H	-6.376170292845866	-4.3646628891923225	-1.6377158773991383e-05
H	-4.6729646828458655	-6.152373889192322	1.6022841226008615e-05
H	-2.261219812845866	-5.603509579192322	1.1162841226008617e-05
H	1.9788381771541337	-5.713404229192323	-1.5337158773991383e-05
H	4.358634587154134	-6.376505079192322	3.101284122600862e-05
H	6.149228137154133	-4.673479489192323	-1.3287158773991382e-05
H	5.606181507154134	-2.263491379192322	-1.3071587739913824e-06
H	5.710398517154133	1.9759809708076774	-2.7207158773991383e-05
H	6.380086667154134	4.356896280807677	-1.9927158773991385e-05
H	4.680375717154134	6.148129540807677	3.442284122600862e-05
H	2.2677456371541345	5.605226900807677	-1.5437158773991382e-05
H	0.13654324715413413	4.525779780807678	7.762841226008618e-06
H	4.525128637154134	-0.09010393919232262	-1.2977158773991382e-05
H	-0.13821222284586598	-4.524166809192322	-2.3471587739913826e-06
H	-4.526566592845866	0.09190854080767741	-1.1577158773991382e-05
C	-3.465490136787846	2.617737685925815	4.499929242840577
C	-2.439917766787846	3.5931437159258146	4.500053682840576
C	-1.1739806967878461	2.893357065925815	4.499981122840577
C	-2.8301085267878463	1.3182946659258148	4.499991882840577
N	-1.4784637767878461	1.5552933559258149	4.500017172840577
C	0.09880420321215418	3.4419895659258146	4.499966662840577
C	1.3282824632121537	2.778498885925815	4.500024362840577
C	2.623170003212154	3.464376845925815	4.499996872840577
C	3.591560833212154	2.444301055925815	4.499929502840577
C	2.8399152932121536	1.1869915859258149	4.500005222840577
N	1.5014866032121539	1.429184235925815	4.5000007528405765
C	-3.442260476787846	0.07480759592581471	4.500047762840577
C	-2.841775526787846	-1.186621304074185	4.499906622840577
C	-3.592182716787846	-2.445221574074185	4.500156292840577
C	-2.622226906787846	-3.463812414074185	4.499860212840577
N	-1.502912706787846	-1.427642664074185	4.500020322840577
C	-1.3286040467878462	-2.776592024074185	4.500073902840577
C	-0.09945687678784625	-3.440425924074185	4.499980552840577
C	1.173208433212154	-2.8923307240741853	4.499976852840577
N	1.4776510132121539	-1.5543318140741853	4.499972422840576
C	2.8292410132121537	-1.317496844074185	4.500032752840577
C	3.464671333212154	-2.6169363640741854	4.499970982840577
C	2.439108623212154	-3.592277604074185	4.500005992840577
C	3.4408074732121543	-0.0740812240741851	4.5000083628405765
C	-2.757283376787846	4.957440205925814	4.500022562840576
C	-4.092368676787846	5.3258174159258145	4.499984872840577
C	-5.113293806787846	4.354811475925814	4.499977722840577
C	-4.812176526787846	3.002964575925815	4.500058762840577
C	3.003579753212154	4.806864535925815	4.500064892840577
C	4.361441813212154	5.1107386659258145	4.499950522840577
C	5.327341963212154	4.0930040859258146	4.4999911128405765
C	4.952215643212154	2.7531529959258147	4.500065982840577
C	-4.952154056787846	-2.7575091640741847	4.499906692840577
C	-5.324033806787846	-4.098345794074185	4.5000508928405765
C	-4.356281196787846	-5.114288004074186	4.499973942840577
C	-2.999217376787846	-4.8071463540741854	4.500025732840577
C	2.7562903332121538	-4.956502434074186	4.499989132840577
C	4.091413983212154	-5.3249118940741855	4.499973962840577
C	5.112342193212154	-4.353925804074185	4.5000418328405765
C	4.811268003212154	-3.002036814074185	4.500012182840576
H	-0.7803522267878459	0.8213883459258148	4.499949242840577
H	0.7795667432121541	-0.8203729940741852	4.500052772840577
H	-1.979888966787846	5.714394055925815	4.499991882840577
H	-4.359700546787846	6.3774023059258145	4.5000136128405765
H	-6.150171916787846	4.674445865925815	4.499990292840577
H	-5.607101516787846	2.264437505925815	4.499991292840576
H	-5.712395576787847	-1.9823411740741848	4.500021312840577
H	-6.376172476787846	-4.3646618540741855	4.499983622840577
H	-4.672966866787846	-6.152372854074185	4.500016022840577
H	-2.261221996787846	-5.603508544074185	4.500011162840576
H	1.9788359932121535	-5.713403194074186	4.499984662840577
H	4.3586324032121535	-6.376504044074185	4.5000310128405765
H	6.149225953212153	-4.673478454074186	4.499986712840577
H	5.606179323212154	-2.2634903440741847	4.499998692840577
H	5.710396333212153	1.9759820059258149	4.499972792840577
H	6.380084483212154	4.356897315925814	4.499980072840577
H	4.680373533212154	6.148130575925814	4.500034422840577
H	2.2677434532121543	5.605227935925814	4.499984562840576
H	0.13654106321215403	4.525780815925815	4.500007762840577
H	4.525126453212154	-0.09010290407418525	4.4999870228405765
H	-0.13821440678784608	-4.524165774074185	4.499997652840577
H	-4.526568776787846	0.09190957592581478	4.499988422840577
