124
98c TS90.0
C	-3.4654879528458657	2.6177366508076774	-7.075715877399138e-05
C	-2.439915582845866	3.593142680807677	5.368284122600862e-05
C	-1.173978512845866	2.8933560308076776	-1.8877158773991383e-05
C	-2.830106342845866	1.3182936308076774	-8.117158773991383e-06
N	-1.478461592845866	1.5552923208076774	1.7172841226008616e-05
C	0.09880638715413426	3.441988530807677	-3.333715877399138e-05
C	1.3282846471541339	2.7784978508076774	2.4362841226008616e-05
C	2.6231721871541342	3.4643758108076774	-3.1271587739913828e-06
C	3.591563017154134	2.4443000208076775	-7.049715877399138e-05
C	2.839917477154134	1.1869905508076775	5.222841226008618e-06
N	1.501488787154134	1.4291832008076775	7.528412260086175e-07
C	-3.442258292845866	0.07480656080767734	4.776284122600862e-05
C	-2.841773342845866	-1.1866223391923225	-9.337715877399137e-05
C	-3.592180532845866	-2.4452226091923226	0.0001562928412260086
C	-2.622224722845866	-3.4638134491923225	-0.0001397871587739914
N	-1.502910522845866	-1.4276436991923225	2.0322841226008618e-05
C	-1.328601862845866	-2.7765930591923222	7.390284122600862e-05
C	-0.09945469284586617	-3.4404269591923224	-1.9447158773991383e-05
C	1.173210617154134	-2.8923317591923228	-2.3147158773991385e-05
N	1.477653197154134	-1.5543328491923227	-2.7577158773991385e-05
C	2.829243197154134	-1.3174978791923224	3.275284122600862e-05
C	3.464673517154134	-2.616937399192323	-2.9017158773991384e-05
C	2.439110807154134	-3.5922786391923225	5.992841226008618e-06
C	3.4408096571541344	-0.07408225919232247	8.362841226008619e-06
C	-2.757281192845866	4.957439170807677	2.2562841226008616e-05
C	-4.092366492845866	5.3258163808076775	-1.5127158773991382e-05
C	-5.113291622845866	4.354810440807677	-2.2277158773991384e-05
C	-4.812174342845866	3.0029635408076776	5.876284122600862e-05
C	3.0035819371541344	4.806863500807678	6.489284122600863e-05
C	4.361443997154134	5.1107376308076775	-4.947715877399138e-05
C	5.327344147154134	4.093003050807678	-8.887158773991382e-06
C	4.952217827154134	2.7531519608076773	6.598284122600862e-05
C	-4.9521518728458656	-2.757510199192322	-9.330715877399138e-05
C	-5.324031622845866	-4.098346829192322	5.089284122600862e-05
C	-4.3562790128458655	-5.114289039192323	-2.6057158773991386e-05
C	-2.999215192845866	-4.807147389192322	2.5732841226008615e-05
C	2.756292517154134	-4.956503469192323	-1.0867158773991382e-05
C	4.091416167154134	-5.3249129291923225	-2.6037158773991382e-05
C	5.112344377154134	-4.353926839192322	4.183284122600862e-05
C	4.811270187154134	-3.0020378491923223	1.2182841226008618e-05
H	-0.7803500428458658	0.8213873108076775	-5.075715877399138e-05
H	0.7795689271541342	-0.8203740291923225	5.277284122600862e-05
H	-1.979886782845866	5.714393020807678	-8.117158773991383e-06
H	-4.359698362845866	6.3774012708076775	1.3612841226008617e-05
H	-6.150169732845866	4.674444830807678	-9.707158773991383e-06
H	-5.607099332845866	2.2644364708076776	-8.707158773991382e-06
H	-5.712393392845867	-1.9823422091923222	2.1312841226008617e-05
H	-6.376170292845866	-4.3646628891923225	-1.6377158773991383e-05
H	-4.6729646828458655	-6.152373889192322	1.6022841226008615e-05
H	-2.261219812845866	-5.603509579192322	1.1162841226008617e-05
H	1.9788381771541337	-5.713404229192323	-1.5337158773991383e-05
H	4.358634587154134	-6.376505079192322	3.101284122600862e-05
H	6.149228137154133	-4.673479489192323	-1.3287158773991382e-05
H	5.606181507154134	-2.263491379192322	-1.3071587739913824e-06
H	5.710398517154133	1.9759809708076774	-2.7207158773991383e-05
H	6.380086667154134	4.356896280807677	-1.9927158773991385e-05
H	4.680375717154134	6.148129540807677	3.442284122600862e-05
H	2.2677456371541345	5.605226900807677	-1.5437158773991382e-05
H	0.13654324715413413	4.525779780807678	7.762841226008618e-06
H	4.525128637154134	-0.09010393919232262	-1.2977158773991382e-05
H	-0.13821222284586598	-4.524166809192322	-2.3471587739913826e-06
H	-4.526566592845866	0.09190854080767741	-1.1577158773991382e-05
C	-0.46283278448752474	-0.45271841976043925	-14.806561119173637
C	0.5488966956236211	0.5368430853140269	-14.786885964742748
C	0.8462416331293081	0.8275202643518714	-13.401465165234633
C	-0.7876526817711338	-0.7702777038556268	-13.433276701476306
N	0.02171054455546262	0.021247722805741453	-12.65769267848292
C	1.771100521337083	1.7319352638235903	-12.903822153059236
C	2.0678614512260145	2.0222235246854563	-11.56984226052486
C	3.0726331561032367	3.00476840079714	-11.154870327110668
C	3.0577750652999613	2.990144191837257	-9.748491718356643
C	2.0450103167415286	1.9998502410810348	-9.37509704504153
N	1.4819241336070867	1.4491924409948211	-10.484041847778084
C	-1.722190088999982	-1.684099558000394	-12.972234881631334
C	-2.0457030688727493	-2.0006658095179763	-11.650527567167892
C	-3.058601678209104	-2.9908473636287534	-11.275344212145145
C	-3.0717576117917447	-3.0041268975182147	-9.868933093112279
N	-1.4818858453976855	-1.4491403342213736	-10.54211665586558
C	-2.0671299423146565	-2.0213855410583856	-9.455805163731707
C	-1.770604211333165	-1.7315385566781227	-8.12181137156699
C	-0.8460825593207478	-0.8274382963550856	-7.623867826776845
N	-0.021626672500869117	-0.021195069440795498	-8.367622300673137
C	0.7876022291500656	0.770248008783878	-7.591959504467411
C	0.4628959637454151	0.45262583674805484	-6.21864353260701
C	-0.5489076740118776	-0.536785167916216	-6.238358255108981
C	1.7217826225115445	1.6837647776126605	-8.053359596989512
C	1.068671295841861	1.045095973176186	-15.984190942997323
C	0.570393933801558	0.557769356305146	-17.18101464242477
C	-0.4368425562863417	-0.4272343256245009	-17.20058646534374
C	-0.9587343616766145	-0.9374878420161813	-16.023542729368693
C	3.938113841334849	3.8512318100598746	-11.848720210438213
C	4.784182171207199	4.678456440827505	-11.11660227909821
C	4.769145767854458	4.663808859101803	-9.713638939709345
C	3.90758384530894	3.8213775326656374	-9.017980101775748
C	-3.9096994010082873	-3.8234994028416684	-12.002921627016015
C	-4.770142917146775	-4.664740049766815	-11.304288270311902
C	-4.78325426890306	-4.677669492336232	-9.901311215576948
C	-3.9360767904159544	-3.8491278006749963	-9.172087523886061
C	-1.0687069099552318	-1.0451292564118595	-5.041233087787053
C	-0.57038910774505	-0.5578370269367943	-3.8443595178847936
C	0.43679658068351446	0.4272019033816895	-3.8247713496364266
C	0.9586955215881581	0.9375342761715479	-5.001815050954175
H	0.011745800442135886	0.011408017470894599	-11.644884607506652
H	-0.011629769224844582	-0.011306543437990268	-9.380449770142508
H	1.8444508861319455	1.803701106976214	-15.981850231156303
H	0.9593852043287295	0.9382107287656641	-18.119762352938096
H	-0.8070878608833152	-0.7892859197142489	-18.154064003656423
H	-1.734195219111028	-1.6959185625399729	-16.051314624412683
H	-3.910899500442926	-3.8245126831207235	-13.088670275467727
H	-5.441035342384067	-5.320911243599984	-11.849506343555376
H	-5.464074989726118	-5.343396788871287	-9.380542280347804
H	-3.9569125133795997	-3.8695237871082586	-8.086739747751047
H	-1.8444660200894927	-1.8037635261213203	-5.0436536578618325
H	-0.9595019805008246	-0.9382773230382448	-2.9056859374844457
H	0.8071153828006529	0.7892658578695311	-2.8713483015768952
H	1.7342156936903614	1.6959097639238594	-4.974066583706484
H	3.9067142903691088	3.8203968365930216	-7.932240263149454
H	5.439190497389628	5.319041545825465	-9.166266454970938
H	5.465716525122061	5.34505781771374	-11.635305424222704
H	3.9611199135910415	3.873617482679117	-12.93398920364261
H	2.3321222307074145	2.2806254137875652	-13.65230148264432
H	2.268052657262228	2.2179416803316583	-7.283782810171793
H	-2.3321626476519404	-2.2806721775395564	-7.374082411354163
H	-2.267858240051337	-2.2178007143821463	-13.742576568998064
