124
98c cofacial 3.5A
C	-3.4654879528458657	2.6177366508076774	-7.075715877399138e-05
C	-2.439915582845866	3.593142680807677	5.368284122600862e-05
C	-1.173978512845866	2.8933560308076776	-1.8877158773991383e-05
C	-2.830106342845866	1.3182936308076774	-8.117158773991383e-06
N	-1.478461592845866	1.5552923208076774	1.7172841226008616e-05
C	0.09880638715413426	3.441988530807677	-3.333715877399138e-05
C	1.3282846471541339	2.7784978508076774	2.4362841226008616e-05
C	2.6231721871541342	3.4643758108076774	-3.1271587739913828e-06
C	3.591563017154134	2.4443000208076775	-7.049715877399138e-05
C	2.839917477154134	1.1869905508076775	5.222841226008618e-06
N	1.501488787154134	1.4291832008076775	7.528412260086175e-07
C	-3.442258292845866	0.07480656080767734	4.776284122600862e-05
C	-2.841773342845866	-1.1866223391923225	-9.337715877399137e-05
C	-3.592180532845866	-2.4452226091923226	0.0001562928412260086
C	-2.622224722845866	-3.4638134491923225	-0.0001397871587739914
N	-1.502910522845866	-1.4276436991923225	2.0322841226008618e-05
C	-1.328601862845866	-2.7765930591923222	7.390284122600862e-05
C	-0.09945469284586617	-3.4404269591923224	-1.9447158773991383e-05
C	1.173210617154134	-2.8923317591923228	-2.3147158773991385e-05
N	1.477653197154134	-1.5543328491923227	-2.7577158773991385e-05
C	2.829243197154134	-1.3174978791923224	3.275284122600862e-05
C	3.464673517154134	-2.616937399192323	-2.9017158773991384e-05
C	2.439110807154134	-3.5922786391923225	5.992841226008618e-06
C	3.4408096571541344	-0.07408225919232247	8.362841226008619e-06
C	-2.757281192845866	4.957439170807677	2.2562841226008616e-05
C	-4.092366492845866	5.3258163808076775	-1.5127158773991382e-05
C	-5.113291622845866	4.354810440807677	-2.2277158773991384e-05
C	-4.812174342845866	3.0029635408076776	5.876284122600862e-05
C	3.0035819371541344	4.806863500807678	6.489284122600863e-05
C	4.361443997154134	5.1107376308076775	-4.947715877399138e-05
C	5.327344147154134	4.093003050807678	-8.887158773991382e-06
C	4.952217827154134	2.7531519608076773	6.598284122600862e-05
C	-4.9521518728458656	-2.757510199192322	-9.330715877399138e-05
C	-5.324031622845866	-4.098346829192322	5.089284122600862e-05
C	-4.3562790128458655	-5.114289039192323	-2.6057158773991386e-05
C	-2.999215192845866	-4.807147389192322	2.5732841226008615e-05
C	2.756292517154134	-4.956503469192323	-1.0867158773991382e-05
C	4.091416167154134	-5.3249129291923225	-2.6037158773991382e-05
C	5.112344377154134	-4.353926839192322	4.183284122600862e-05
C	4.811270187154134	-3.0020378491923223	1.2182841226008618e-05
H	-0.7803500428458658	0.8213873108076775	-5.075715877399138e-05
H	0.7795689271541342	-0.8203740291923225	5.277284122600862e-05
H	-1.979886782845866	5.714393020807678	-8.117158773991383e-06
H	-4.359698362845866	6.3774012708076775	1.3612841226008617e-05
H	-6.150169732845866	4.674444830807678	-9.707158773991383e-06
H	-5.607099332845866	2.2644364708076776	-8.707158773991382e-06
H	-5.712393392845867	-1.9823422091923222	2.1312841226008617e-05
H	-6.376170292845866	-4.3646628891923225	-1.6377158773991383e-05
H	-4.6729646828458655	-6.152373889192322	1.6022841226008615e-05
H	-2.261219812845866	-5.603509579192322	1.1162841226008617e-05
H	1.9788381771541337	-5.713404229192323	-1.5337158773991383e-05
H	4.358634587154134	-6.376505079192322	3.101284122600862e-05
H	6.149228137154133	-4.673479489192323	-1.3287158773991382e-05
H	5.606181507154134	-2.263491379192322	-1.3071587739913824e-06
H	5.710398517154133	1.9759809708076774	-2.7207158773991383e-05
H	6.380086667154134	4.356896280807677	-1.9927158773991385e-05
H	4.680375717154134	6.148129540807677	3.442284122600862e-05
H	2.2677456371541345	5.605226900807677	-1.5437158773991382e-05
H	0.13654324715413413	4.525779780807678	7.762841226008618e-06
H	4.525128637154134	-0.09010393919232262	-1.2977158773991382e-05
H	-0.13821222284586598	-4.524166809192322	-2.3471587739913826e-06
H	-4.526566592845866	0.09190854080767741	-1.1577158773991382e-05
C	-3.4654896514674056	2.617737455899562	3.4999292428407207
C	-2.4399172814674057	3.593143485899562	3.5000536828407207
C	-1.173980211467406	2.8933568358995623	3.4999811228407207
C	-2.830108041467406	1.318294435899562	3.4999918828407206
N	-1.478463291467406	1.5552931258995621	3.5000171728407206
C	0.09880468853259419	3.441989335899562	3.4999666628407207
C	1.3282829485325938	2.778498655899562	3.500024362840721
C	2.6231704885325944	3.464376615899562	3.4999968728407205
C	3.591561318532594	2.444300825899562	3.4999295028407205
C	2.839915778532594	1.1869913558995622	3.500005222840721
N	1.501487088532594	1.4291840058995622	3.5000007528407204
C	-3.442259991467406	0.07480736589956195	3.5000477628407207
C	-2.8417750414674057	-1.1866215341004378	3.4999066228407205
C	-3.592182231467406	-2.445221804100438	3.5001562928407206
C	-2.622226421467406	-3.4638126441004378	3.4998602128407206
N	-1.502912221467406	-1.4276428941004378	3.5000203228407205
C	-1.328603561467406	-2.7765922541004375	3.500073902840721
C	-0.09945639146740623	-3.4404261541004377	3.4999805528407206
C	1.173208918532594	-2.892330954100438	3.4999768528407205
N	1.477651498532594	-1.554332044100438	3.4999724228407207
C	2.829241498532594	-1.3174970741004377	3.5000327528407205
C	3.464671818532594	-2.616936594100438	3.4999709828407206
C	2.439109108532594	-3.5922778341004378	3.5000059928407206
C	3.4408079585325946	-0.07408145410043786	3.500008362840721
C	-2.7572828914674057	4.957439975899562	3.5000225628407207
C	-4.092368191467406	5.325817185899562	3.4999848728407206
C	-5.113293321467406	4.354811245899562	3.4999777228407205
C	-4.812176041467406	3.0029643458995623	3.5000587628407205
C	3.0035802385325945	4.806864305899563	3.5000648928407205
C	4.361442298532594	5.110738435899562	3.4999505228407206
C	5.327342448532594	4.093003855899562	3.499991112840721
C	4.952216128532593	2.753152765899562	3.5000659828407206
C	-4.952153571467406	-2.7575093941004374	3.4999066928407205
C	-5.3240333214674065	-4.0983460241004375	3.500050892840721
C	-4.356280711467406	-5.114288234100438	3.499973942840721
C	-2.9992168914674058	-4.807146584100438	3.5000257328407205
C	2.756290818532594	-4.956502664100438	3.4999891328407204
C	4.0914144685325935	-5.324912124100438	3.4999739628407207
C	5.112342678532594	-4.3539260341004375	3.500041832840721
C	4.811268488532594	-3.0020370441004376	3.5000121828407207
H	-0.7803517414674059	0.8213881158995621	3.499949242840721
H	0.7795672285325941	-0.8203732241004379	3.5000527728407205
H	-1.979888481467406	5.714393825899562	3.4999918828407206
H	-4.359700061467406	6.377402075899562	3.5000136128407204
H	-6.150171431467406	4.674445635899563	3.4999902928407205
H	-5.607101031467407	2.2644372758995623	3.4999912928407206
H	-5.712395091467407	-1.9823414041004375	3.5000213128407207
H	-6.376171991467406	-4.364662084100438	3.4999836228407206
H	-4.672966381467406	-6.152373084100438	3.5000160228407204
H	-2.2612215114674057	-5.603508774100438	3.5000111628407207
H	1.9788364785325936	-5.713403424100438	3.4999846628407205
H	4.358632888532593	-6.376504274100437	3.500031012840721
H	6.149226438532593	-4.673478684100438	3.4999867128407205
H	5.606179808532594	-2.2634905741004374	3.4999986928407205
H	5.710396818532593	1.9759817758995621	3.4999727928407207
H	6.380084968532594	4.356897085899562	3.4999800728407204
H	4.680374018532594	6.1481303458995615	3.5000344228407205
H	2.2677439385325946	5.605227705899562	3.4999845628407207
H	0.13654154853259406	4.525780585899563	3.5000077628407205
H	4.525126938532594	-0.090103134100438	3.499987022840721
H	-0.13821392146740605	-4.5241660041004375	3.4999976528407206
H	-4.526568291467406	0.09190934589956203	3.4999884228407208
