124
98c cofacial 5.0A
C	-3.4654879528458657	2.6177366508076774	-7.075715877399138e-05
C	-2.439915582845866	3.593142680807677	5.368284122600862e-05
C	-1.173978512845866	2.8933560308076776	-1.8877158773991383e-05
C	-2.830106342845866	1.3182936308076774	-8.117158773991383e-06
N	-1.478461592845866	1.5552923208076774	1.7172841226008616e-05
C	0.09880638715413426	3.441988530807677	-3.333715877399138e-05
C	1.3282846471541339	2.7784978508076774	2.4362841226008616e-05
C	2.6231721871541342	3.4643758108076774	-3.1271587739913828e-06
C	3.591563017154134	2.4443000208076775	-7.049715877399138e-05
C	2.839917477154134	1.1869905508076775	5.222841226008618e-06
N	1.501488787154134	1.4291832008076775	7.528412260086175e-07
C	-3.442258292845866	0.07480656080767734	4.776284122600862e-05
C	-2.841773342845866	-1.1866223391923225	-9.337715877399137e-05
C	-3.592180532845866	-2.4452226091923226	0.0001562928412260086
C	-2.622224722845866	-3.4638134491923225	-0.0001397871587739914
N	-1.502910522845866	-1.4276436991923225	2.0322841226008618e-05
C	-1.328601862845866	-2.7765930591923222	7.390284122600862e-05
C	-0.09945469284586617	-3.4404269591923224	-1.9447158773991383e-05
C	1.173210617154134	-2.8923317591923228	-2.3147158773991385e-05
N	1.477653197154134	-1.5543328491923227	-2.7577158773991385e-05
C	2.829243197154134	-1.3174978791923224	3.275284122600862e-05
C	3.464673517154134	-2.616937399192323	-2.9017158773991384e-05
C	2.439110807154134	-3.5922786391923225	5.992841226008618e-06
C	3.4408096571541344	-0.07408225919232247	8.362841226008619e-06
C	-2.757281192845866	4.957439170807677	2.2562841226008616e-05
C	-4.092366492845866	5.3258163808076775	-1.5127158773991382e-05
C	-5.113291622845866	4.354810440807677	-2.2277158773991384e-05
C	-4.812174342845866	3.0029635408076776	5.876284122600862e-05
C	3.0035819371541344	4.806863500807678	6.489284122600863e-05
C	4.361443997154134	5.1107376308076775	-4.947715877399138e-05
C	5.327344147154134	4.093003050807678	-8.887158773991382e-06
C	4.952217827154134	2.7531519608076773	6.598284122600862e-05
C	-4.9521518728458656	-2.757510199192322	-9.330715877399138e-05
C	-5.324031622845866	-4.098346829192322	5.089284122600862e-05
C	-4.3562790128458655	-5.114289039192323	-2.6057158773991386e-05
C	-2.999215192845866	-4.807147389192322	2.5732841226008615e-05
C	2.756292517154134	-4.956503469192323	-1.0867158773991382e-05
C	4.091416167154134	-5.3249129291923225	-2.6037158773991382e-05
C	5.112344377154134	-4.353926839192322	4.183284122600862e-05
C	4.811270187154134	-3.0020378491923223	1.2182841226008618e-05
H	-0.7803500428458658	0.8213873108076775	-5.075715877399138e-05
H	0.7795689271541342	-0.8203740291923225	5.277284122600862e-05
H	-1.979886782845866	5.714393020807678	-8.117158773991383e-06
H	-4.359698362845866	6.3774012708076775	1.3612841226008617e-05
H	-6.150169732845866	4.674444830807678	-9.707158773991383e-06
H	-5.607099332845866	2.2644364708076776	-8.707158773991382e-06
H	-5.712393392845867	-1.9823422091923222	2.1312841226008617e-05
H	-6.376170292845866	-4.3646628891923225	-1.6377158773991383e-05
H	-4.6729646828458655	-6.152373889192322	1.6022841226008615e-05
H	-2.261219812845866	-5.603509579192322	1.1162841226008617e-05
H	1.9788381771541337	-5.713404229192323	-1.5337158773991383e-05
H	4.358634587154134	-6.376505079192322	3.101284122600862e-05
H	6.149228137154133	-4.673479489192323	-1.3287158773991382e-05
H	5.606181507154134	-2.263491379192322	-1.3071587739913824e-06
H	5.710398517154133	1.9759809708076774	-2.7207158773991383e-05
H	6.380086667154134	4.356896280807677	-1.9927158773991385e-05
H	4.680375717154134	6.148129540807677	3.442284122600862e-05
H	2.2677456371541345	5.605226900807677	-1.5437158773991382e-05
H	0.13654324715413413	4.525779780807678	7.762841226008618e-06
H	4.525128637154134	-0.09010393919232262	-1.2977158773991382e-05
H	-0.13821222284586598	-4.524166809192322	-2.3471587739913826e-06
H	-4.526566592845866	0.09190854080767741	-1.1577158773991382e-05
C	-3.465490379448066	2.617737800938941	4.999929242840505
C	-2.439918009448066	3.5931438309389407	5.000053682840504
C	-1.173980939448066	2.893357180938941	4.999981122840505
C	-2.830108769448066	1.3182947809389411	4.999991882840505
N	-1.478464019448066	1.5552934709389412	5.000017172840505
C	0.09880396055193416	3.4419896809389408	4.999966662840505
C	1.3282822205519338	2.778499000938941	5.000024362840505
C	2.623169760551934	3.464376960938941	4.999996872840505
C	3.591560590551934	2.444301170938941	4.999929502840505
C	2.8399150505519337	1.1869917009389412	5.000005222840505
N	1.501486360551934	1.4291843509389413	5.000000752840505
C	-3.442260719448066	0.07480771093894108	5.000047762840505
C	-2.841775769448066	-1.1866211890610587	4.999906622840505
C	-3.592182959448066	-2.445221459061059	5.000156292840505
C	-2.622227149448066	-3.463812299061059	4.999860212840505
N	-1.502912949448066	-1.4276425490610587	5.000020322840505
C	-1.328604289448066	-2.7765919090610587	5.000073902840505
C	-0.09945711944806626	-3.440425809061059	4.999980552840505
C	1.173208190551934	-2.892330609061059	4.999976852840505
N	1.477650770551934	-1.554331699061059	4.9999724228405045
C	2.829240770551934	-1.3174967290610586	5.000032752840505
C	3.464671090551934	-2.6169362490610593	4.999970982840505
C	2.439108380551934	-3.592277489061059	5.000005992840505
C	3.4408072305519344	-0.07408110906105873	5.0000083628405045
C	-2.757283619448066	4.957440320938941	5.000022562840504
C	-4.092368919448066	5.3258175309389415	4.999984872840505
C	-5.113294049448066	4.354811590938941	4.999977722840505
C	-4.812176769448066	3.002964690938941	5.000058762840505
C	3.0035795105519343	4.806864650938942	5.000064892840505
C	4.361441570551934	5.1107387809389415	4.999950522840505
C	5.327341720551934	4.093004200938942	4.999991112840505
C	4.952215400551934	2.753153110938941	5.000065982840505
C	-4.952154299448066	-2.7575090490610585	4.999906692840505
C	-5.324034049448066	-4.098345679061058	5.0000508928405045
C	-4.356281439448066	-5.114287889061059	4.999973942840505
C	-2.999217619448066	-4.807146239061058	5.000025732840505
C	2.756290090551934	-4.956502319061059	4.999989132840505
C	4.091413740551934	-5.3249117790610585	4.999973962840505
C	5.112341950551934	-4.353925689061058	5.0000418328405045
C	4.811267760551934	-3.0020366990610587	5.000012182840504
H	-0.7803524694480659	0.8213884609389412	4.999949242840505
H	0.7795665005519341	-0.8203728790610587	5.000052772840505
H	-1.979889209448066	5.714394170938942	4.999991882840505
H	-4.359700789448066	6.3774024209389415	5.000013612840505
H	-6.150172159448066	4.674445980938942	4.999990292840505
H	-5.607101759448066	2.264437620938941	4.999991292840504
H	-5.712395819448067	-1.9823410590610584	5.000021312840505
H	-6.376172719448066	-4.3646617390610585	4.999983622840505
H	-4.672967109448066	-6.152372739061058	5.000016022840505
H	-2.261222239448066	-5.603508429061058	5.000011162840504
H	1.9788357505519336	-5.713403079061059	4.999984662840505
H	4.358632160551934	-6.376503929061058	5.0000310128405046
H	6.149225710551933	-4.673478339061059	4.999986712840505
H	5.606179080551934	-2.2634902290610586	4.999998692840505
H	5.710396090551933	1.9759821209389412	4.999972792840505
H	6.380084240551934	4.356897430938941	4.999980072840505
H	4.680373290551934	6.148130690938941	5.000034422840505
H	2.2677432105519344	5.605228050938941	4.999984562840504
H	0.13654082055193403	4.525780930938942	5.000007762840505
H	4.525126210551934	-0.09010278906105888	4.999987022840505
H	-0.13821464944806608	-4.524165659061058	4.999997652840505
H	-4.526569019448066	0.09190969093894115	4.999988422840505
