124
98c TS45.0
C	-3.4654879528458657	2.6177366508076774	-7.075715877399138e-05
C	-2.439915582845866	3.593142680807677	5.368284122600862e-05
C	-1.173978512845866	2.8933560308076776	-1.8877158773991383e-05
C	-2.830106342845866	1.3182936308076774	-8.117158773991383e-06
N	-1.478461592845866	1.5552923208076774	1.7172841226008616e-05
C	0.09880638715413426	3.441988530807677	-3.333715877399138e-05
C	1.3282846471541339	2.7784978508076774	2.4362841226008616e-05
C	2.6231721871541342	3.4643758108076774	-3.1271587739913828e-06
C	3.591563017154134	2.4443000208076775	-7.049715877399138e-05
C	2.839917477154134	1.1869905508076775	5.222841226008618e-06
N	1.501488787154134	1.4291832008076775	7.528412260086175e-07
C	-3.442258292845866	0.07480656080767734	4.776284122600862e-05
C	-2.841773342845866	-1.1866223391923225	-9.337715877399137e-05
C	-3.592180532845866	-2.4452226091923226	0.0001562928412260086
C	-2.622224722845866	-3.4638134491923225	-0.0001397871587739914
N	-1.502910522845866	-1.4276436991923225	2.0322841226008618e-05
C	-1.328601862845866	-2.7765930591923222	7.390284122600862e-05
C	-0.09945469284586617	-3.4404269591923224	-1.9447158773991383e-05
C	1.173210617154134	-2.8923317591923228	-2.3147158773991385e-05
N	1.477653197154134	-1.5543328491923227	-2.7577158773991385e-05
C	2.829243197154134	-1.3174978791923224	3.275284122600862e-05
C	3.464673517154134	-2.616937399192323	-2.9017158773991384e-05
C	2.439110807154134	-3.5922786391923225	5.992841226008618e-06
C	3.4408096571541344	-0.07408225919232247	8.362841226008619e-06
C	-2.757281192845866	4.957439170807677	2.2562841226008616e-05
C	-4.092366492845866	5.3258163808076775	-1.5127158773991382e-05
C	-5.113291622845866	4.354810440807677	-2.2277158773991384e-05
C	-4.812174342845866	3.0029635408076776	5.876284122600862e-05
C	3.0035819371541344	4.806863500807678	6.489284122600863e-05
C	4.361443997154134	5.1107376308076775	-4.947715877399138e-05
C	5.327344147154134	4.093003050807678	-8.887158773991382e-06
C	4.952217827154134	2.7531519608076773	6.598284122600862e-05
C	-4.9521518728458656	-2.757510199192322	-9.330715877399138e-05
C	-5.324031622845866	-4.098346829192322	5.089284122600862e-05
C	-4.3562790128458655	-5.114289039192323	-2.6057158773991386e-05
C	-2.999215192845866	-4.807147389192322	2.5732841226008615e-05
C	2.756292517154134	-4.956503469192323	-1.0867158773991382e-05
C	4.091416167154134	-5.3249129291923225	-2.6037158773991382e-05
C	5.112344377154134	-4.353926839192322	4.183284122600862e-05
C	4.811270187154134	-3.0020378491923223	1.2182841226008618e-05
H	-0.7803500428458658	0.8213873108076775	-5.075715877399138e-05
H	0.7795689271541342	-0.8203740291923225	5.277284122600862e-05
H	-1.979886782845866	5.714393020807678	-8.117158773991383e-06
H	-4.359698362845866	6.3774012708076775	1.3612841226008617e-05
H	-6.150169732845866	4.674444830807678	-9.707158773991383e-06
H	-5.607099332845866	2.2644364708076776	-8.707158773991382e-06
H	-5.712393392845867	-1.9823422091923222	2.1312841226008617e-05
H	-6.376170292845866	-4.3646628891923225	-1.6377158773991383e-05
H	-4.6729646828458655	-6.152373889192322	1.6022841226008615e-05
H	-2.261219812845866	-5.603509579192322	1.1162841226008617e-05
H	1.9788381771541337	-5.713404229192323	-1.5337158773991383e-05
H	4.358634587154134	-6.376505079192322	3.101284122600862e-05
H	6.149228137154133	-4.673479489192323	-1.3287158773991382e-05
H	5.606181507154134	-2.263491379192322	-1.3071587739913824e-06
H	5.710398517154133	1.9759809708076774	-2.7207158773991383e-05
H	6.380086667154134	4.356896280807677	-1.9927158773991385e-05
H	4.680375717154134	6.148129540807677	3.442284122600862e-05
H	2.2677456371541345	5.605226900807677	-1.5437158773991382e-05
H	0.13654324715413413	4.525779780807678	7.762841226008618e-06
H	4.525128637154134	-0.09010393919232262	-1.2977158773991382e-05
H	-0.13821222284586598	-4.524166809192322	-2.3471587739913826e-06
H	-4.526566592845866	0.09190854080767741	-1.1577158773991382e-05
C	-2.586007557317315	1.718399373983802	-10.988290753664662
C	-1.5645256391458022	2.6979882198204095	-10.974290435302578
C	-0.5822616767601214	2.2882801229449106	-9.994701332904842
C	-2.231880698558789	0.7065619434103318	-10.017187701217097
N	-1.0390738353698847	1.1059851395080063	-9.468749183740043
C	0.5886222837315422	2.941114524016601	-9.642824908894829
C	1.544897201295176	2.5569962207938133	-8.699517912866128
C	2.754819794649428	3.329757667902161	-8.406107991475167
C	3.4352431153822067	2.6041518018881713	-7.411695776485832
C	2.6070955040435186	1.4250718488347074	-7.147612219579012
N	1.4957606897722968	1.4350427579080363	-7.931757709593538
C	-2.9384734418434477	-0.44035182461378564	-9.69114229008125
C	-2.6085804420985554	-1.4250787063420494	-8.756653851429782
C	-3.435941991581923	-2.60498695832165	-8.491182504332203
C	-2.7538472768661504	-3.3292166913082144	-7.496909023662499
N	-1.4967561682807244	-1.4339349042658114	-7.9728086424822
C	-1.5449309811712306	-2.5553770307826165	-7.204632470017412
C	-0.5889153229274229	-2.9399120067298097	-6.261422453908384
C	0.5817821842768199	-2.28754653256677	-5.909325912743988
N	1.0385345216587492	-1.105296591604597	-6.435242966174424
C	2.231253180188152	-0.7060029054099578	-5.886723970591291
C	2.5854837939000923	-1.7178931239388586	-4.915686577138565
C	1.563940808574371	-2.6973448554905852	-4.9296021261797955
C	2.9373182329114584	0.44078030805919993	-6.213000451937979
C	-1.6366894406663255	3.8115461521910827	-11.820934965793327
C	-2.7266684265661087	3.929282455236688	-12.667243716655591
C	-3.7435822509570036	2.954174632833344	-12.681088032543936
C	-3.683542324928614	1.8488487042460922	-11.84873506486921
C	3.27728393679787	4.526983324143646	-8.896685945045808
C	4.485278229382942	4.98410929209832	-8.379081354209724
C	5.163856881271366	4.260184037811111	-7.387007760088886
C	4.6462350858460795	3.0660460247489816	-6.895049644394898
C	-4.646795438508611	-3.069759579683624	-9.005833830268157
C	-5.161814067018919	-4.2642252013399675	-8.511723388593479
C	-4.481327653218186	-4.986414636340071	-7.5197232097882285
C	-3.2736210599797557	-4.526543217150404	-7.004047662703802
C	1.6359812527809876	-3.8108930376495422	-4.083118668195938
C	2.726014509402388	-3.928677870940801	-3.2368120312475828
C	3.74289804739522	-2.953555778681231	-3.222913221941326
C	3.68287579773708	-1.8481617725875368	-4.0552298268968
H	-0.5483334140315042	0.5841337762763225	-8.752633761396096
H	0.5478192125023895	-0.5833892015981734	-7.151363323062572
H	-0.8597590569559215	4.56897450635252	-11.819301610279556
H	-2.801775941521014	4.784302491913716	-13.331018308289009
H	-4.58521174850596	3.0741516232253145	-13.355289537331508
H	-4.472746919778095	1.10447207038401	-11.868420385036949
H	-5.18475200839533	-2.5218958175809103	-9.773493013552429
H	-6.102268836027478	-4.644747026891067	-8.897298280121523
H	-4.904678276965697	-5.915425997764107	-7.151454135779493
H	-2.757878006121865	-5.0956345398325595	-6.236601190550573
H	0.8590246702845931	-4.568302794707216	-4.084833346811251
H	2.8009813413995888	-4.783677319684003	-2.573029194822337
H	4.5845653897276115	-3.0734839508496234	-2.548780334979524
H	4.47211154573419	-1.10381157403974	-4.035618320047993
H	5.182122034740829	2.516188252153555	-6.127381537078002
H	6.104513031178403	4.63869459032584	-6.999964843018012
H	4.9103895841011065	5.912923991305151	-8.745800612801126
H	2.763730747321121	5.098044377271211	-9.664143813915008
H	0.7796139084181593	3.868190459077714	-10.17205071684316
H	3.8640525043964136	0.5859016585983884	-5.668842635907932
H	-0.7808027289909338	-3.8670642504151553	-5.732686083563408
H	-3.86500050834821	-0.5845938377841565	-10.235898021910373
