92
135d_H_capped TS90.0
C	-2.556824026563579	0.21767711893776842	3.134234490088908e-05
C	-2.455373416563579	1.6089536389377685	-2.307765509911092e-05
C	-1.2189560065635792	2.2260849389377686	2.662234490088908e-05
C	-0.03716587656357917	1.4351895289377685	-4.677765509911092e-05
C	-0.13740659656357912	0.008791588937768435	6.719234490088907e-05
C	-1.4306391365635793	-0.6028667310622317	-5.990765509911092e-05
C	1.2459388834364207	2.0511168689377683	2.215234490088908e-05
C	2.386734113436421	1.2655695989377684	-2.2157655099110922e-05
C	2.2868818834364206	-0.12348696106223156	2.497234490088908e-05
C	1.055462793436421	-0.7791440410622316	-5.5917655099110924e-05
C	-1.170808406563579	3.7099706089377684	-1.0287655099110919e-05
N	0.12058294343642084	4.235943878937769	2.1923449008890805e-06
C	1.3243867934364206	3.4953827089377683	-8.90765509911092e-06
C	-1.5342759865635793	-2.069416391062232	2.075234490088908e-05
O	-2.1452361365635793	4.434658938937768	1.2022344900889081e-05
N	2.399155363436421	4.2357512689377685	5.13234490088908e-06
H	-3.344742296563579	2.2281017789377686	3.4523449008890803e-06
H	-3.5488166065635793	-0.21382612106223153	-4.927655099110919e-06
H	3.356191873436421	1.7493390789377683	-2.1276550991109196e-06
H	3.2076105034364204	-0.6915103810622315	-1.0467655099110919e-05
C	0.5034452134364208	5.578477578937768	-4.767655099110919e-06
C	1.9360877134364207	5.545829948937769	5.92234490088908e-06
C	2.492432583436421	6.798706528937768	7.323449008890805e-07
S	1.2368065934364205	7.996754628937769	-5.537655099110919e-06
C	-0.05149365656357918	6.819254808937769	-5.84765509911092e-06
H	3.5306602434364205	7.091430568937769	7.462344900889081e-06
H	-1.0851933065635793	7.121913038937769	-1.209765509911092e-05
C	0.9531955534364208	-2.2434271710622316	2.293234490088908e-05
C	-0.3397563265635791	-2.854169151062232	2.49234490088908e-06
C	2.078477873436421	-3.0674139610622317	-1.2176550991109195e-06
C	1.9742735034364207	-4.458930231062231	-1.4367655099110918e-05
C	0.7363892834364208	-5.0706237310622315	4.130234490088908e-05
C	-0.4399215265635792	-4.279908451062231	-2.9387655099110922e-05
C	-1.7154424365635792	-4.897639711062231	4.223234490088908e-05
C	-2.855954596563579	-4.1194314710622315	-1.546765509911092e-05
C	-2.7641307165635793	-2.7265245210622315	8.323449008890804e-07
C	-1.8430262565635793	-6.3753375410622315	-3.337765509911092e-05
N	-0.6361908165635792	-7.070576621062231	3.123449008890805e-07
C	0.6565358534364208	-6.550395361062232	-3.007765509911092e-05
O	1.6233633934364207	-7.285534191062231	1.668234490088908e-05
O	-2.903718196563579	-6.966906601062231	1.639234490088908e-05
H	-0.7064380765635792	-8.080938071062231	-2.623765509911092e-05
H	2.8617304434364206	-5.080991931062231	9.052344900889081e-06
H	3.0713850334364206	-2.6380152410622317	1.3223449008890806e-06
H	-3.6869750165635793	-2.1618816110622316	1.6234490088908045e-07
H	-3.8215976065635795	-4.6114925510622315	9.012344900889081e-06
C	-2.545540166063378	0.31026451473983324	10.8837343708495
C	-2.612680782065812	0.3185036983931725	12.27706377837299
C	-1.4684991459726933	0.17897925696334974	13.039271341659958
C	-0.20900572193085004	0.025522457659610285	12.397188175820165
C	-0.13646154717553166	0.01656459584967072	10.96914181887219
C	-1.3372744554181308	0.16307029458530556	10.205492188000532
C	0.9813219631324075	-0.11964650431624031	13.163849960896401
C	2.1997748177538874	-0.26812981260464547	12.522115108809434
C	2.2682246434618762	-0.27652124339339984	11.131182758841936
C	1.1335994192595682	-0.1381302962715331	10.331337314601413
C	-1.5992881339941032	0.1949594614587147	14.518079560482157
N	-0.38998357679991674	0.04753410931521982	15.196450958213372
C	0.885147839417897	-0.1078917037000495	14.606995918424335
C	-1.263249853476695	0.1539655270406344	8.737178199118915
O	-2.6464967100846963	0.32259045977148076	15.119533717971219
N	1.855249207754547	-0.22616004464368208	15.471975119662861
H	-3.563399533835659	0.434368451240071	12.78404567032049
H	-3.4711740273727147	0.42313471429134264	10.335367158963304
H	3.0969278448105815	-0.3775118722976755	13.119637718980139
H	3.243704233371605	-0.3953953368530878	10.67874456617328
C	-0.17398393428805217	0.021211022646678797	16.575447514777846
C	1.2416022504618598	-0.15135801003016655	16.716394608296337
C	1.6393132944208455	-0.19983328239586812	18.02738484952503
S	0.2581698263679574	-0.03146722842506383	19.06469457629016
C	-0.8698326203421843	0.10603523356389001	17.7399580313828
H	2.627178230069556	-0.32025961684746446	18.443587209579142
H	-1.9247499063143616	0.2346346858038309	17.91531102188082
C	1.2087015536862864	-0.14736459033984353	8.865438929100307
C	0.008042224223123614	-0.000985062199134464	8.10273286588721
C	2.4164833370649155	-0.29456741703093475	8.183669890543111
C	2.4809474867019516	-0.30241227246324676	6.78976927994365
C	1.3346546089928084	-0.16273662318088278	6.032782070885762
C	0.08059934936213017	-0.009797573025374401	6.675349447489629
C	-1.1020558571183974	0.1342945325959148	5.907814670271056
C	-2.31933591943891	0.28273764400973866	6.542298671481333
C	-2.3961667082453046	0.29208680465499265	7.936081660202627
C	-1.0502696330137782	0.1280580234744892	4.425536758887249
N	0.22239972836328184	-0.027112789546486223	3.8814376189019226
C	1.4337209454637536	-0.1747407827865879	4.55422114435581
O	2.4746875102618477	-0.3016804686595767	3.9414736263798993
O	-2.0243811674699286	0.24675091653545506	3.709967012193329
H	0.27454322080086396	-0.033442272405550796	2.870000061891277
H	3.4301262092292877	-0.41813961732964594	6.279663885087747
H	3.343275251933613	-0.407544802248529	8.730058713714635
H	-3.373320583313914	0.4112013687695911	8.38490817781316
H	-3.21173949633699	0.39149591193183375	5.937006985671923
