92
135d_H_capped TL45.0
C	-2.556824026563579	0.21767711893776842	3.134234490088908e-05
C	-2.455373416563579	1.6089536389377685	-2.307765509911092e-05
C	-1.2189560065635792	2.2260849389377686	2.662234490088908e-05
C	-0.03716587656357917	1.4351895289377685	-4.677765509911092e-05
C	-0.13740659656357912	0.008791588937768435	6.719234490088907e-05
C	-1.4306391365635793	-0.6028667310622317	-5.990765509911092e-05
C	1.2459388834364207	2.0511168689377683	2.215234490088908e-05
C	2.386734113436421	1.2655695989377684	-2.2157655099110922e-05
C	2.2868818834364206	-0.12348696106223156	2.497234490088908e-05
C	1.055462793436421	-0.7791440410622316	-5.5917655099110924e-05
C	-1.170808406563579	3.7099706089377684	-1.0287655099110919e-05
N	0.12058294343642084	4.235943878937769	2.1923449008890805e-06
C	1.3243867934364206	3.4953827089377683	-8.90765509911092e-06
C	-1.5342759865635793	-2.069416391062232	2.075234490088908e-05
O	-2.1452361365635793	4.434658938937768	1.2022344900889081e-05
N	2.399155363436421	4.2357512689377685	5.13234490088908e-06
H	-3.344742296563579	2.2281017789377686	3.4523449008890803e-06
H	-3.5488166065635793	-0.21382612106223153	-4.927655099110919e-06
H	3.356191873436421	1.7493390789377683	-2.1276550991109196e-06
H	3.2076105034364204	-0.6915103810622315	-1.0467655099110919e-05
C	0.5034452134364208	5.578477578937768	-4.767655099110919e-06
C	1.9360877134364207	5.545829948937769	5.92234490088908e-06
C	2.492432583436421	6.798706528937768	7.323449008890805e-07
S	1.2368065934364205	7.996754628937769	-5.537655099110919e-06
C	-0.05149365656357918	6.819254808937769	-5.84765509911092e-06
H	3.5306602434364205	7.091430568937769	7.462344900889081e-06
H	-1.0851933065635793	7.121913038937769	-1.209765509911092e-05
C	0.9531955534364208	-2.2434271710622316	2.293234490088908e-05
C	-0.3397563265635791	-2.854169151062232	2.49234490088908e-06
C	2.078477873436421	-3.0674139610622317	-1.2176550991109195e-06
C	1.9742735034364207	-4.458930231062231	-1.4367655099110918e-05
C	0.7363892834364208	-5.0706237310622315	4.130234490088908e-05
C	-0.4399215265635792	-4.279908451062231	-2.9387655099110922e-05
C	-1.7154424365635792	-4.897639711062231	4.223234490088908e-05
C	-2.855954596563579	-4.1194314710622315	-1.546765509911092e-05
C	-2.7641307165635793	-2.7265245210622315	8.323449008890804e-07
C	-1.8430262565635793	-6.3753375410622315	-3.337765509911092e-05
N	-0.6361908165635792	-7.070576621062231	3.123449008890805e-07
C	0.6565358534364208	-6.550395361062232	-3.007765509911092e-05
O	1.6233633934364207	-7.285534191062231	1.668234490088908e-05
O	-2.903718196563579	-6.966906601062231	1.639234490088908e-05
H	-0.7064380765635792	-8.080938071062231	-2.623765509911092e-05
H	2.8617304434364206	-5.080991931062231	9.052344900889081e-06
H	3.0713850334364206	-2.6380152410622317	1.3223449008890806e-06
H	-3.6869750165635793	-2.1618816110622316	1.6234490088908045e-07
H	-3.8215976065635795	-4.6114925510622315	9.012344900889081e-06
C	-1.811231269129587	0.12679074395833745	-3.2728603363041198
C	-1.6901521854319335	1.5156745623735914	-3.2250672534424765
C	-0.7888248219822487	2.1736531789180473	-4.040083927951637
C	0.024019469870216935	1.4277320902279211	-4.937318207815178
C	-0.0973926939784443	0.00391493916066464	-4.988923488241027
C	-1.0389998577580684	-0.6506063461990408	-4.133614096719774
C	0.9585311349699095	2.086152761920468	-5.785194663984361
C	1.742420417807974	1.3441121562851719	-6.653176002492632
C	1.6225513964391385	-0.04250436639449473	-6.701906215749612
C	0.7234025655283721	-0.7386650322076872	-5.893716327443602
C	-0.7023949210207036	3.6528722547121357	-3.9469406383054375
N	0.23480753331293028	4.222020981820895	-4.8083701396498935
C	1.0651267939609559	3.526987404758504	-5.716705324514256
C	-1.1642639504923353	-2.1145196556134156	-4.1862946246308415
O	-1.3700876415381447	4.340169733663417	-3.2009572715176047
N	1.8557684555210783	4.301990899109783	-6.407739643953021
H	-2.3010444368162175	2.1008765344486866	-2.5478149121694353
H	-2.532136051551415	-0.33775796901969063	-2.6135158783969783
H	2.449121389150497	1.859911563250862	-7.2922424837622
H	2.2575451574039334	-0.5756968436539877	-7.3968022542627585
C	0.5544000560819469	5.5722672337668415	-4.962239993649116
C	1.5724340932488887	5.590160177236141	-5.970613407821032
C	2.0122883769731192	6.857236904026464	-6.253922632221714
S	1.1611855160888127	8.0059738279189	-5.270081549222489
C	0.20326957079221353	6.788200319076533	-4.466559251362339
H	2.7611815209376696	7.185230683251851	-6.957615162621624
H	-0.5214561878563971	7.0531947793865495	-3.7151023454840866
C	0.5991912740559219	-2.2002731927890204	-5.9471655499817775
C	-0.34210912640104196	-2.85388132008826	-5.091899332611075
C	1.3707065752955983	-2.9811359522881458	-6.807532925678213
C	1.2476126171151554	-4.370349590522066	-6.853461406810045
C	0.3455070368410238	-5.02297434620302	-6.036875383492809
C	-0.4635467681224017	-4.277027519621933	-5.14360439810639
C	-1.3926281274314054	-4.936989595247919	-4.301106093610876
C	-2.176645828271327	-4.202237859463007	-3.434023521549948
C	-2.062308156246023	-2.812075329944384	-3.379283820779262
C	-1.535429867065693	-6.412832368147998	-4.338042342275305
N	-0.7013280554432443	-7.0626353969762	-5.2445958985024586
C	0.23659048250769846	-6.499203195265636	-6.107488567234545
O	0.8985572910551137	-7.197179647785132	-6.848982606167135
O	-2.310777851525927	-7.039184719933361	-3.644111811736622
H	-0.7868652763152781	-8.071133008064079	-5.281756229018294
H	1.8570772834037255	-4.958524165208355	-7.529585707325794
H	2.0921642720839446	-2.5186476724558533	-7.4677232557240085
H	-2.6989512759748004	-2.2823202070352573	-2.6832175410976844
H	-2.8808934650592875	-4.726162910518607	-2.7983126306829926
