92
135d_H_capped PD long
C	-2.556824026563579	0.21767711893776842	3.134234490088908e-05
C	-2.455373416563579	1.6089536389377685	-2.307765509911092e-05
C	-1.2189560065635792	2.2260849389377686	2.662234490088908e-05
C	-0.03716587656357917	1.4351895289377685	-4.677765509911092e-05
C	-0.13740659656357912	0.008791588937768435	6.719234490088907e-05
C	-1.4306391365635793	-0.6028667310622317	-5.990765509911092e-05
C	1.2459388834364207	2.0511168689377683	2.215234490088908e-05
C	2.386734113436421	1.2655695989377684	-2.2157655099110922e-05
C	2.2868818834364206	-0.12348696106223156	2.497234490088908e-05
C	1.055462793436421	-0.7791440410622316	-5.5917655099110924e-05
C	-1.170808406563579	3.7099706089377684	-1.0287655099110919e-05
N	0.12058294343642084	4.235943878937769	2.1923449008890805e-06
C	1.3243867934364206	3.4953827089377683	-8.90765509911092e-06
C	-1.5342759865635793	-2.069416391062232	2.075234490088908e-05
O	-2.1452361365635793	4.434658938937768	1.2022344900889081e-05
N	2.399155363436421	4.2357512689377685	5.13234490088908e-06
H	-3.344742296563579	2.2281017789377686	3.4523449008890803e-06
H	-3.5488166065635793	-0.21382612106223153	-4.927655099110919e-06
H	3.356191873436421	1.7493390789377683	-2.1276550991109196e-06
H	3.2076105034364204	-0.6915103810622315	-1.0467655099110919e-05
C	0.5034452134364208	5.578477578937768	-4.767655099110919e-06
C	1.9360877134364207	5.545829948937769	5.92234490088908e-06
C	2.492432583436421	6.798706528937768	7.323449008890805e-07
S	1.2368065934364205	7.996754628937769	-5.537655099110919e-06
C	-0.05149365656357918	6.819254808937769	-5.84765509911092e-06
H	3.5306602434364205	7.091430568937769	7.462344900889081e-06
H	-1.0851933065635793	7.121913038937769	-1.209765509911092e-05
C	0.9531955534364208	-2.2434271710622316	2.293234490088908e-05
C	-0.3397563265635791	-2.854169151062232	2.49234490088908e-06
C	2.078477873436421	-3.0674139610622317	-1.2176550991109195e-06
C	1.9742735034364207	-4.458930231062231	-1.4367655099110918e-05
C	0.7363892834364208	-5.0706237310622315	4.130234490088908e-05
C	-0.4399215265635792	-4.279908451062231	-2.9387655099110922e-05
C	-1.7154424365635792	-4.897639711062231	4.223234490088908e-05
C	-2.855954596563579	-4.1194314710622315	-1.546765509911092e-05
C	-2.7641307165635793	-2.7265245210622315	8.323449008890804e-07
C	-1.8430262565635793	-6.3753375410622315	-3.337765509911092e-05
N	-0.6361908165635792	-7.070576621062231	3.123449008890805e-07
C	0.6565358534364208	-6.550395361062232	-3.007765509911092e-05
O	1.6233633934364207	-7.285534191062231	1.668234490088908e-05
O	-2.903718196563579	-6.966906601062231	1.639234490088908e-05
H	-0.7064380765635792	-8.080938071062231	-2.623765509911092e-05
H	2.8617304434364206	-5.080991931062231	9.052344900889081e-06
H	3.0713850334364206	-2.6380152410622317	1.3223449008890806e-06
H	-3.6869750165635793	-2.1618816110622316	1.6234490088908045e-07
H	-3.8215976065635795	-4.6114925510622315	9.012344900889081e-06
C	-1.9580004034446286	5.130139543212636	3.5000323331072436
C	-1.8565497934446284	6.521416063212637	3.4999779131072435
C	-0.6201323834446286	7.138547363212637	3.5000276131072434
C	0.5616577465553714	6.347651953212637	3.4999542131072436
C	0.4614170265553714	4.921254013212637	3.5000681831072438
C	-0.8318155134446288	4.3095956932126365	3.4999410831072435
C	1.8447625065553712	6.963579293212637	3.5000231431072435
C	2.9855577365553714	6.178032023212637	3.4999788331072437
C	2.885705506555371	4.788975463212637	3.5000259631072437
C	1.6542864165553715	4.133318383212637	3.4999450731072437
C	-0.5719847834446286	8.622433033212637	3.4999907031072435
N	0.7194065665553714	9.148406303212637	3.5000031831072436
C	1.9232104165553712	8.407845133212637	3.4999920831072435
C	-0.9354523634446288	2.8430460332126364	3.5000217431072436
O	-1.5464125134446287	9.347121363212636	3.5000130131072438
N	2.9979789865553714	9.148213693212638	3.5000061231072435
H	-2.7459186734446286	7.140564203212637	3.5000044431072435
H	-2.949992983444629	4.698636303212637	3.4999960631072438
H	3.9550154965553714	6.6618015032126365	3.4999988631072436
H	3.806434126555371	4.220952043212637	3.4999905231072437
C	1.1022688365553712	10.490940003212637	3.4999962231072437
C	2.5349113365553713	10.458292373212638	3.5000069131072435
C	3.0912562065553715	11.711168953212637	3.5000017231072436
S	1.835630216555371	12.909217053212638	3.4999954531072435
C	0.5473299665553714	11.731717233212636	3.4999951431072436
H	4.129483866555371	12.003892993212636	3.5000084531072435
H	-0.4863696834446287	12.034375463212637	3.4999888931072434
C	1.5520191765553712	2.6690352532126367	3.5000239231072436
C	0.2590672965553714	2.0582932732126364	3.5000034831072435
C	2.6773014965553714	1.8450484632126363	3.4999997731072434
C	2.5730971265553713	0.4535321932126369	3.4999866231072434
C	1.3352129065553715	-0.15816130678736343	3.5000422931072435
C	0.15890209655537138	0.6325539732126372	3.4999716031072436
C	-1.1166188134446287	0.014822713212636918	3.5000432231072436
C	-2.2571309734446285	0.7930309532126366	3.4999855231072434
C	-2.165307093444629	2.1859379032126367	3.5000018231072434
C	-1.2442026334446288	-1.4628751167873635	3.4999676131072435
N	-0.03736719344462867	-2.1581141967873627	3.5000013031072434
C	1.2553594765553715	-1.6379329367873636	3.4999709131072434
O	2.222187016555371	-2.373071766787363	3.5000176731072434
O	-2.3048945734446287	-2.0544441767873627	3.5000173831072434
H	-0.1076144534446286	-3.168475646787363	3.4999747531072436
H	3.460554066555371	-0.1685295067873628	3.5000100431072436
H	3.670208656555371	2.2744471832126365	3.5000023131072435
H	-3.0881513934446287	2.7505808132126366	3.5000011531072435
H	-3.222773983444629	0.3009698732126365	3.5000100031072434
