92
135d_H_capped TL45.0anti
C	-2.556824026563579	0.21767711893776842	3.134234490088908e-05
C	-2.455373416563579	1.6089536389377685	-2.307765509911092e-05
C	-1.2189560065635792	2.2260849389377686	2.662234490088908e-05
C	-0.03716587656357917	1.4351895289377685	-4.677765509911092e-05
C	-0.13740659656357912	0.008791588937768435	6.719234490088907e-05
C	-1.4306391365635793	-0.6028667310622317	-5.990765509911092e-05
C	1.2459388834364207	2.0511168689377683	2.215234490088908e-05
C	2.386734113436421	1.2655695989377684	-2.2157655099110922e-05
C	2.2868818834364206	-0.12348696106223156	2.497234490088908e-05
C	1.055462793436421	-0.7791440410622316	-5.5917655099110924e-05
C	-1.170808406563579	3.7099706089377684	-1.0287655099110919e-05
N	0.12058294343642084	4.235943878937769	2.1923449008890805e-06
C	1.3243867934364206	3.4953827089377683	-8.90765509911092e-06
C	-1.5342759865635793	-2.069416391062232	2.075234490088908e-05
O	-2.1452361365635793	4.434658938937768	1.2022344900889081e-05
N	2.399155363436421	4.2357512689377685	5.13234490088908e-06
H	-3.344742296563579	2.2281017789377686	3.4523449008890803e-06
H	-3.5488166065635793	-0.21382612106223153	-4.927655099110919e-06
H	3.356191873436421	1.7493390789377683	-2.1276550991109196e-06
H	3.2076105034364204	-0.6915103810622315	-1.0467655099110919e-05
C	0.5034452134364208	5.578477578937768	-4.767655099110919e-06
C	1.9360877134364207	5.545829948937769	5.92234490088908e-06
C	2.492432583436421	6.798706528937768	7.323449008890805e-07
S	1.2368065934364205	7.996754628937769	-5.537655099110919e-06
C	-0.05149365656357918	6.819254808937769	-5.84765509911092e-06
H	3.5306602434364205	7.091430568937769	7.462344900889081e-06
H	-1.0851933065635793	7.121913038937769	-1.209765509911092e-05
C	0.9531955534364208	-2.2434271710622316	2.293234490088908e-05
C	-0.3397563265635791	-2.854169151062232	2.49234490088908e-06
C	2.078477873436421	-3.0674139610622317	-1.2176550991109195e-06
C	1.9742735034364207	-4.458930231062231	-1.4367655099110918e-05
C	0.7363892834364208	-5.0706237310622315	4.130234490088908e-05
C	-0.4399215265635792	-4.279908451062231	-2.9387655099110922e-05
C	-1.7154424365635792	-4.897639711062231	4.223234490088908e-05
C	-2.855954596563579	-4.1194314710622315	-1.546765509911092e-05
C	-2.7641307165635793	-2.7265245210622315	8.323449008890804e-07
C	-1.8430262565635793	-6.3753375410622315	-3.337765509911092e-05
N	-0.6361908165635792	-7.070576621062231	3.123449008890805e-07
C	0.6565358534364208	-6.550395361062232	-3.007765509911092e-05
O	1.6233633934364207	-7.285534191062231	1.668234490088908e-05
O	-2.903718196563579	-6.966906601062231	1.639234490088908e-05
H	-0.7064380765635792	-8.080938071062231	-2.623765509911092e-05
H	2.8617304434364206	-5.080991931062231	9.052344900889081e-06
H	3.0713850334364206	-2.6380152410622317	1.3223449008890806e-06
H	-3.6869750165635793	-2.1618816110622316	1.6234490088908045e-07
H	-3.8215976065635795	-4.6114925510622315	9.012344900889081e-06
C	-1.8112337516239512	0.12678901412530383	6.804548955859396
C	-1.6901546679262975	1.515672832540558	6.852342038721039
C	-0.7888273044766126	2.1736514490850136	6.037325364211878
C	0.02401698737585299	1.4277303603948877	5.140091084348337
C	-0.09739517647280825	0.003913209327631014	5.088485803922488
C	-1.0390023402524324	-0.6506080760320745	5.943795195443741
C	0.9585286524755455	2.086151032087434	4.292214628179154
C	1.74241793531361	1.3441104264521384	3.4242332896708825
C	1.6225489139447744	-0.04250609622752835	3.375503076413903
C	0.7234000830340082	-0.7386667620407209	4.183692964719913
C	-0.7023974035150675	3.652870524879102	6.1304686538580775
N	0.23480505081856634	4.222019251987861	5.2690391525136215
C	1.0651243114665918	3.5269856749254704	4.360703967649259
C	-1.1642664329866994	-2.1145213854464493	5.8911146675326735
O	-1.3700901240325087	4.3401680038303825	6.87645202064591
N	1.8557659730267142	4.301989169276749	3.669669648210494
H	-2.3010469193105814	2.100874804615653	7.52959437999408
H	-2.532138534045779	-0.3377596988527242	7.463893413766536
H	2.449118906656133	1.8599098334178286	2.7851668084013155
H	2.2575426749095695	-0.5756985734870214	2.6806070379007565
C	0.5543975735875829	5.572265503933807	5.115169298514399
C	1.5724316107545246	5.590158447403107	4.106795884342483
C	2.0122858944787554	6.85723517419343	3.8234866599418007
S	1.1611830335944486	8.005972098085868	4.807327742941026
C	0.2032670882978496	6.788198589243499	5.610850040801176
H	2.7611790384433057	7.185228953418817	3.1197941295418907
H	-0.5214586703507611	7.053193049553515	6.362306946679428
C	0.5991887915615579	-2.200274922622054	4.1302437421817375
C	-0.34211160889540587	-2.8538830499212935	4.98550995955244
C	1.3707040928012342	-2.9811376821211795	3.2698763664853017
C	1.2476101346207913	-4.3703513203551	3.223947885353471
C	0.3455045543466599	-5.022976076036054	4.040533908670706
C	-0.4635492506167656	-4.2770292494549675	4.933804894057125
C	-1.3926306099257695	-4.936991325080953	5.77630319855264
C	-2.1766483107656907	-4.202239589296041	6.643385770613567
C	-2.062310638740387	-2.8120770597774176	6.6981254713842535
C	-1.535432349560057	-6.412834097981032	5.739366949888211
N	-0.7013305379376082	-7.062637126809234	4.8328133936610564
C	0.23658800001333452	-6.49920492509867	3.9699207249289703
O	0.8985548085607498	-7.197181377618167	3.2284266859963804
O	-2.310780334020291	-7.039186449766395	6.4332974804268925
H	-0.7868677588096421	-8.071134737897111	4.795653063145221
H	1.8570748009093614	-4.958525895041389	2.5478235848377206
H	2.0921617895895808	-2.518649402288887	2.6096860364395065
H	-2.6989537584691643	-2.282321936868291	7.394191751065831
H	-2.8808959475536513	-4.726164640351641	7.279096661480523
