68
104c PD long+short
C	-6.0379030268464255	-0.5419911212169644	-2.08333606966749e-05
C	-5.9825729468464255	0.8572752887830356	7.766393033251022e-07
C	-4.756376296846426	1.5035623387830357	-3.61333606966749e-05
C	-3.5538299368464257	0.7760860387830356	-5.283360696674898e-06
C	-3.631024706846426	-0.6391179512169642	5.4666393033251025e-06
C	-4.867328046846426	-1.2902216812169642	3.21466393033251e-05
N	-2.350901756846426	1.4434367587830357	4.92966393033251e-05
C	-1.2345774568464258	0.7483328887830356	-0.0001080333606966749
C	-1.2062481968464258	-0.7201620412169645	9.924663930332511e-05
N	-2.433186246846426	-1.3330831612169642	-2.60933606966749e-05
C	0.025803693153574114	1.4152788987830356	4.90266393033251e-05
C	1.206298613153574	0.7203159287830356	-9.333336069667489e-05
C	1.2346236931535741	-0.7481742112169643	0.00010827663930332511
C	-0.02575053684642592	-1.4150929912169643	-5.72633606966749e-05
N	2.433268703153574	1.3331486587830357	2.60066393033251e-05
C	3.631064073153574	0.6391281587830356	-6.583360696674898e-06
C	3.5537591931535744	-0.7760588912169644	2.11766393033251e-05
N	2.350857983153574	-1.4433650012169645	-4.50933606966749e-05
C	4.867419393153574	1.2901193087830356	3.43366393033251e-05
C	6.0379181731535745	0.5417605287830356	-2.21133606966749e-05
C	5.982462753153574	-0.8574912812169642	-1.3843360696674898e-05
C	4.756215983153574	-1.5036621412169644	8.896639303325103e-06
H	-4.681476866846426	2.585182068783036	-6.633606966748979e-07
H	-6.900523076846426	1.4351378087830355	5.366639303325103e-06
H	-6.996830146846426	-1.0491159612169645	-6.773360696674898e-06
H	-4.906575896846426	-2.376556471216964	8.096639303325102e-06
H	-0.005133396846425775	-2.5000767012169645	-1.213360696674898e-06
H	4.681188953153574	-2.5852586612169643	-1.3383360696674897e-05
H	6.900365283153574	-1.4354354912169642	-1.903360696674898e-06
H	6.996883963153574	1.0488017487830357	7.336639303325102e-06
H	4.906833043153574	2.3764411287830356	-1.4713360696674898e-05
H	0.005135673153574105	2.5002668687830356	7.676639303325103e-06
H	2.4620109931535743	2.3427369887830354	5.566393033251021e-07
H	-2.461872896846426	-2.342684941216964	9.166393033251021e-07
C	-2.037106479288458	-2.4216628664455966	3.4999773148149074
C	-1.9817763992884576	-1.022396456445597	3.4999989248149075
C	-0.7555797492884583	-0.3761094064455968	3.4999620148149075
C	0.4469666107115421	-1.103585706445597	3.4999928648149075
C	0.3697718407115419	-2.5187896964455967	3.5000036148149074
C	-0.8665314992884582	-3.1698934264455967	3.5000302948149074
N	1.649894790711542	-0.43623498644559683	3.5000474448149075
C	2.766219090711542	-1.1313388564455968	3.4998901148149075
C	2.794548350711542	-2.599833786445597	3.5000973948149077
N	1.5676103007115418	-3.2127549064455967	3.4999720548149074
C	4.026600240711542	-0.4643928464455969	3.5000471748149073
C	5.2070951607115425	-1.1593558164455968	3.4999048148149074
C	5.235420240711543	-2.6278459564455967	3.5001064248149074
C	3.9750460107115417	-3.2947647364455968	3.4999408848149076
N	6.434065250711543	-0.5465230864455969	3.5000241548149074
C	7.631860620711542	-1.2405435864455967	3.4999915648149074
C	7.5545557407115425	-2.655730636445597	3.5000193248149074
N	6.351654530711542	-3.323036746445597	3.4999530548149074
C	8.868215940711542	-0.589552436445597	3.5000324848149074
C	10.038714720711543	-1.3379112164455969	3.4999760348149076
C	9.983259300711543	-2.7371630264455966	3.4999843048149075
C	8.757012530711542	-3.383333886445597	3.5000070448149074
H	-0.680680319288458	0.7055103235544032	3.4999974848149074
H	-2.899726529288458	-0.44453393644559697	3.5000035148149076
H	-2.996033599288458	-2.928787706445597	3.4999913748149076
H	-0.9057793492884579	-4.256228216445597	3.5000062448149074
H	3.995663150711542	-4.379748446445597	3.4999969348149076
H	8.681985500711543	-4.464930406445597	3.4999847648149074
H	10.901161830711542	-3.3151072364455967	3.4999962448149073
H	10.997680510711541	-0.8308699964455969	3.5000054848149076
H	8.907629590711542	0.4967693835544031	3.4999834348149075
H	4.005932220711542	0.620595123554403	3.5000058248149073
H	6.462807540711543	0.46306524355440287	3.4999987048149075
H	1.5389236507115418	-4.222356686445597	3.4999990648149075
