68
104c TS45.0
C	-6.0379030268464255	-0.5419911212169644	-2.08333606966749e-05
C	-5.9825729468464255	0.8572752887830356	7.766393033251022e-07
C	-4.756376296846426	1.5035623387830357	-3.61333606966749e-05
C	-3.5538299368464257	0.7760860387830356	-5.283360696674898e-06
C	-3.631024706846426	-0.6391179512169642	5.4666393033251025e-06
C	-4.867328046846426	-1.2902216812169642	3.21466393033251e-05
N	-2.350901756846426	1.4434367587830357	4.92966393033251e-05
C	-1.2345774568464258	0.7483328887830356	-0.0001080333606966749
C	-1.2062481968464258	-0.7201620412169645	9.924663930332511e-05
N	-2.433186246846426	-1.3330831612169642	-2.60933606966749e-05
C	0.025803693153574114	1.4152788987830356	4.90266393033251e-05
C	1.206298613153574	0.7203159287830356	-9.333336069667489e-05
C	1.2346236931535741	-0.7481742112169643	0.00010827663930332511
C	-0.02575053684642592	-1.4150929912169643	-5.72633606966749e-05
N	2.433268703153574	1.3331486587830357	2.60066393033251e-05
C	3.631064073153574	0.6391281587830356	-6.583360696674898e-06
C	3.5537591931535744	-0.7760588912169644	2.11766393033251e-05
N	2.350857983153574	-1.4433650012169645	-4.50933606966749e-05
C	4.867419393153574	1.2901193087830356	3.43366393033251e-05
C	6.0379181731535745	0.5417605287830356	-2.21133606966749e-05
C	5.982462753153574	-0.8574912812169642	-1.3843360696674898e-05
C	4.756215983153574	-1.5036621412169644	8.896639303325103e-06
H	-4.681476866846426	2.585182068783036	-6.633606966748979e-07
H	-6.900523076846426	1.4351378087830355	5.366639303325103e-06
H	-6.996830146846426	-1.0491159612169645	-6.773360696674898e-06
H	-4.906575896846426	-2.376556471216964	8.096639303325102e-06
H	-0.005133396846425775	-2.5000767012169645	-1.213360696674898e-06
H	4.681188953153574	-2.5852586612169643	-1.3383360696674897e-05
H	6.900365283153574	-1.4354354912169642	-1.903360696674898e-06
H	6.996883963153574	1.0488017487830357	7.336639303325102e-06
H	4.906833043153574	2.3764411287830356	-1.4713360696674898e-05
H	0.005135673153574105	2.5002668687830356	7.676639303325103e-06
H	2.4620109931535743	2.3427369887830354	5.566393033251021e-07
H	-2.461872896846426	-2.342684941216964	9.166393033251021e-07
C	-4.27327516593635	-0.5770452637515477	3.2186535234657088
C	-4.226021552365083	0.8223815710239704	3.238135168383902
C	-3.355042987030264	1.4757244016569047	4.095914080003391
C	-2.508828235311479	0.7553260005256387	4.956312972136391
C	-2.5716606168501466	-0.6601632729776574	4.92162040275726
C	-3.4498076406515397	-1.3183811464050792	4.056756799570995
N	-1.6542478237786582	1.429596034517747	5.7974107275645475
C	-0.8686899189882313	0.7410622553777046	6.59626576498786
C	-0.8573422364340385	-0.7270953653786852	6.637062579672795
N	-1.7285363725251282	-1.347082710808819	5.778176229602561
C	0.026447710705408613	1.4152631837567875	7.47805904023854
C	0.85737874560042	0.7272436836072286	8.322289215454784
C	0.8687275083289857	-0.7409092516376777	8.3630789984539
C	-0.026399073932026132	-1.415083032007557	7.481284236754911
N	1.7285992688161265	1.3471427513170713	9.181195215396638
C	2.5716934455380356	0.6601677648181616	10.037720627149392
C	2.5087712647612825	-0.7553049721092988	10.002962003593264
N	1.6542184509166296	-1.4295304085784621	9.161874422527735
C	3.449828784991992	1.318274322878375	10.902670359899968
C	4.2733190376342325	0.5768082551218695	11.740644187021143
C	4.225955741550233	-0.8226042906386618	11.721094854139091
C	3.3549524237287933	-1.475831435163577	10.863268857933829
H	-3.2958067448899024	2.557655253281917	4.133701195754451
H	-4.87185872010523	1.3948390470280125	2.5810626273800175
H	-4.954409227004859	-1.0896879728407016	2.54785499284399
H	-3.4838657867959224	-2.4048190207362135	4.044248475445727
H	-0.018168133849394547	-2.499820711950803	7.511136169781884
H	3.2956167501140587	-2.5577396362963536	10.825400533948546
H	4.871747084224532	-1.3951434918857217	12.378146579163683
H	4.9544492005022125	1.0893681897872425	12.411501996578416
H	3.484055792471111	2.4046991663443658	10.915244391841249
H	0.018170419508728136	2.5000050337531916	7.448181471360048
H	1.7548162810671726	2.3567812414848714	9.187319216919272
H	-1.7547152160220916	-2.356734303939918	5.772092855709253
