68
104c cofacial 3.5A
C	-6.0379030268464255	-0.5419911212169644	-2.08333606966749e-05
C	-5.9825729468464255	0.8572752887830356	7.766393033251022e-07
C	-4.756376296846426	1.5035623387830357	-3.61333606966749e-05
C	-3.5538299368464257	0.7760860387830356	-5.283360696674898e-06
C	-3.631024706846426	-0.6391179512169642	5.4666393033251025e-06
C	-4.867328046846426	-1.2902216812169642	3.21466393033251e-05
N	-2.350901756846426	1.4434367587830357	4.92966393033251e-05
C	-1.2345774568464258	0.7483328887830356	-0.0001080333606966749
C	-1.2062481968464258	-0.7201620412169645	9.924663930332511e-05
N	-2.433186246846426	-1.3330831612169642	-2.60933606966749e-05
C	0.025803693153574114	1.4152788987830356	4.90266393033251e-05
C	1.206298613153574	0.7203159287830356	-9.333336069667489e-05
C	1.2346236931535741	-0.7481742112169643	0.00010827663930332511
C	-0.02575053684642592	-1.4150929912169643	-5.72633606966749e-05
N	2.433268703153574	1.3331486587830357	2.60066393033251e-05
C	3.631064073153574	0.6391281587830356	-6.583360696674898e-06
C	3.5537591931535744	-0.7760588912169644	2.11766393033251e-05
N	2.350857983153574	-1.4433650012169645	-4.50933606966749e-05
C	4.867419393153574	1.2901193087830356	3.43366393033251e-05
C	6.0379181731535745	0.5417605287830356	-2.21133606966749e-05
C	5.982462753153574	-0.8574912812169642	-1.3843360696674898e-05
C	4.756215983153574	-1.5036621412169644	8.896639303325103e-06
H	-4.681476866846426	2.585182068783036	-6.633606966748979e-07
H	-6.900523076846426	1.4351378087830355	5.366639303325103e-06
H	-6.996830146846426	-1.0491159612169645	-6.773360696674898e-06
H	-4.906575896846426	-2.376556471216964	8.096639303325102e-06
H	-0.005133396846425775	-2.5000767012169645	-1.213360696674898e-06
H	4.681188953153574	-2.5852586612169643	-1.3383360696674897e-05
H	6.900365283153574	-1.4354354912169642	-1.903360696674898e-06
H	6.996883963153574	1.0488017487830357	7.336639303325102e-06
H	4.906833043153574	2.3764411287830356	-1.4713360696674898e-05
H	0.005135673153574105	2.5002668687830356	7.676639303325103e-06
H	2.4620109931535743	2.3427369887830354	5.566393033251021e-07
H	-2.461872896846426	-2.342684941216964	9.166393033251021e-07
C	-6.037902058428779	-0.5419925081319127	3.499979166638895
C	-5.982571978428779	0.8572739018680873	3.500000776638895
C	-4.7563753284287795	1.5035609518680875	3.4999638666388946
C	-3.5538289684287796	0.7760846518680873	3.499994716638895
C	-3.63102373842878	-0.6391193381319126	3.500005466638895
C	-4.867327078428779	-1.2902230681319125	3.500032146638895
N	-2.35090078842878	1.4434353718680875	3.500049296638895
C	-1.2345764884287795	0.7483315018680873	3.4998919666388946
C	-1.2062472284287795	-0.7201634281319128	3.5000992466388947
N	-2.43318527842878	-1.3330845481319125	3.499973906638895
C	0.025804661571220317	1.4152775118680874	3.500049026638895
C	1.2062995815712203	0.7203145418680873	3.499906666638895
C	1.2346246615712204	-0.7481755981319126	3.500108276638895
C	-0.025749568428779717	-1.4150943781319125	3.4999427366388947
N	2.43326967157122	1.3331472718680875	3.500026006638895
C	3.6310650415712202	0.6391267718680873	3.499993416638895
C	3.5537601615712204	-0.7760602781319127	3.500021176638895
N	2.35085895157122	-1.4433663881319128	3.499954906638895
C	4.86742036157122	1.2901179218680874	3.500034336638895
C	6.037919141571221	0.5417591418680873	3.4999778866388946
C	5.982463721571221	-0.8574926681319125	3.4999861566388946
C	4.75621695157122	-1.5036635281319126	3.500008896638895
H	-4.681475898428779	2.5851806818680876	3.499999336638895
H	-6.900522108428779	1.4351364218680873	3.5000053666388946
H	-6.996829178428779	-1.0491173481319127	3.4999932266388947
H	-4.906574928428779	-2.3765578581319122	3.500008096638895
H	-0.005132428428779573	-2.5000780881319127	3.4999987866388946
H	4.681189921571221	-2.5852600481319126	3.499986616638895
H	6.900366251571221	-1.4354368781319125	3.499998096638895
H	6.996884931571221	1.0488003618680874	3.5000073366388946
H	4.90683401157122	2.3764397418680874	3.499985286638895
H	0.005136641571220307	2.5002654818680874	3.500007676638895
H	2.4620119615712204	2.342735601868087	3.500000556638895
H	-2.46187192842878	-2.3426863281319124	3.5000009166388946
