64
115a_H_capped cofacial 4.0A
C	-5.99305014510493	-0.12412247916423835	7.360458206713472e-06
C	-5.85323169510493	1.2683536608357615	6.660458206713472e-06
C	-4.58844615510493	1.8495100308357615	-6.209541793286527e-06
C	-3.4718071051049293	1.0252245108357616	7.090458206713472e-06
C	-3.5812823051049296	-0.3773922691642384	1.0880458206713472e-05
C	-4.86946627510493	-0.9366159291642382	-1.4579541793286527e-05
O	-2.2329050151049294	1.6180492308357617	7.650458206713472e-06
C	-1.1222557751049296	0.8307047408357616	-1.1679541793286528e-05
C	-1.2950931951049296	-0.6230830791642386	-1.0495417932865273e-06
N	-2.4699577751049295	-1.1988757591642383	-1.6195417932865273e-06
C	0.10027664489507049	1.4177144508357615	1.1380458206713472e-05
C	1.2949269948950703	0.6225683608357616	3.4804582067134726e-06
C	1.1222166648950702	-0.8312288891642385	6.150458206713473e-06
C	-0.10036555510492962	-1.4182564891642384	-1.0359541793286528e-05
N	2.4696844148950703	1.1986130808357616	2.0045820671347251e-07
C	3.58112911489507	0.3773147508357617	-5.479541793286528e-06
C	3.47194935489507	-1.0253196091642383	-4.8695417932865275e-06
O	2.2330756248950703	-1.6184168391642384	-9.349541793286528e-06
C	4.86909783489507	0.9370183808357616	1.6500458206713475e-05
C	5.99297779489507	0.12495957083576159	-1.6339541793286525e-05
C	5.85354438489507	-1.2675660291642386	-2.8495417932865274e-06
C	4.58894192489507	-1.8491904291642385	7.900458206713473e-06
H	-4.4518427951049295	2.9251749808357617	-4.6995417932865275e-06
H	-6.73248639510493	1.9033951208357616	-1.0369541793286528e-05
H	-6.98237881510493	-0.5685500891642383	2.9304582067134723e-06
H	-4.944409265104929	-2.0182002791642386	6.2804582067134724e-06
H	-0.20690327510492956	-2.495905179164238	-1.9695417932865278e-06
H	4.45291473489507	-2.9249336391642387	8.304582067134725e-07
H	6.73300429489507	-1.9023288091642385	8.330458206713472e-06
H	6.98215220489507	0.5697490608357616	1.8904582067134725e-06
H	4.94345297489507	2.0186548908357618	-5.6695417932865275e-06
H	0.2068421548950703	2.4953597308357613	1.6104582067134727e-06
C	-5.9930513050129814	-0.1241302291513775	4.000007360450531
C	-5.8532328550129815	1.2683459108486224	4.000006660450531
C	-4.588447315012981	1.8495022808486223	3.999993790450531
C	-3.4718082650129807	1.0252167608486225	4.000007090450531
C	-3.581283465012981	-0.37740001915137755	4.000010880450531
C	-4.869467435012981	-0.9366236791513773	3.999985420450531
O	-2.232906175012981	1.6180414808486225	4.000007650450531
C	-1.122256935012981	0.8306969908486225	3.999988320450531
C	-1.295094355012981	-0.6230908291513777	3.999998950450531
N	-2.469958935012981	-1.1988835091513774	3.9999983804505312
C	0.10027548498701905	1.4177067008486224	4.000011380450531
C	1.294925834987019	0.6225606108486225	4.000003480450531
C	1.1222155049870188	-0.8312366391513777	4.000006150450531
C	-0.10036671501298106	-1.4182642391513776	3.999989640450531
N	2.469683254987019	1.1986053308486224	4.000000200450531
C	3.5811279549870187	0.37730700084862256	3.999994520450531
C	3.471948194987019	-1.0253273591513774	3.999995130450531
O	2.233074464987019	-1.6184245891513775	3.999990650450531
C	4.869096674987019	0.9370106308486225	4.000016500450531
C	5.992976634987019	0.12495182084862244	3.999983660450531
C	5.8535432249870185	-1.2675737791513777	3.999997150450531
C	4.588940764987019	-1.8491981791513776	4.000007900450531
H	-4.451843955012981	2.9251672308486225	3.999995300450531
H	-6.732487555012981	1.9033873708486224	3.999989630450531
H	-6.982379975012981	-0.5685578391513775	4.000002930450531
H	-4.944410425012981	-2.0182080291513778	4.000006280450531
H	-0.206904435012981	-2.4959129291513773	3.999998030450531
H	4.452913574987019	-2.924941389151378	4.0000008304505315
H	6.733003134987019	-1.9023365591513777	4.000008330450531
H	6.9821510449870186	0.5697413108486225	4.000001890450531
H	4.943451814987019	2.0186471408486226	3.999994330450531
H	0.20684099498701886	2.495351980848622	4.000001610450531
