64
115a_H_capped TS90.0
C	-5.99305014510493	-0.12412247916423835	7.360458206713472e-06
C	-5.85323169510493	1.2683536608357615	6.660458206713472e-06
C	-4.58844615510493	1.8495100308357615	-6.209541793286527e-06
C	-3.4718071051049293	1.0252245108357616	7.090458206713472e-06
C	-3.5812823051049296	-0.3773922691642384	1.0880458206713472e-05
C	-4.86946627510493	-0.9366159291642382	-1.4579541793286527e-05
O	-2.2329050151049294	1.6180492308357617	7.650458206713472e-06
C	-1.1222557751049296	0.8307047408357616	-1.1679541793286528e-05
C	-1.2950931951049296	-0.6230830791642386	-1.0495417932865273e-06
N	-2.4699577751049295	-1.1988757591642383	-1.6195417932865273e-06
C	0.10027664489507049	1.4177144508357615	1.1380458206713472e-05
C	1.2949269948950703	0.6225683608357616	3.4804582067134726e-06
C	1.1222166648950702	-0.8312288891642385	6.150458206713473e-06
C	-0.10036555510492962	-1.4182564891642384	-1.0359541793286528e-05
N	2.4696844148950703	1.1986130808357616	2.0045820671347251e-07
C	3.58112911489507	0.3773147508357617	-5.479541793286528e-06
C	3.47194935489507	-1.0253196091642383	-4.8695417932865275e-06
O	2.2330756248950703	-1.6184168391642384	-9.349541793286528e-06
C	4.86909783489507	0.9370183808357616	1.6500458206713475e-05
C	5.99297779489507	0.12495957083576159	-1.6339541793286525e-05
C	5.85354438489507	-1.2675660291642386	-2.8495417932865274e-06
C	4.58894192489507	-1.8491904291642385	7.900458206713473e-06
H	-4.4518427951049295	2.9251749808357617	-4.6995417932865275e-06
H	-6.73248639510493	1.9033951208357616	-1.0369541793286528e-05
H	-6.98237881510493	-0.5685500891642383	2.9304582067134723e-06
H	-4.944409265104929	-2.0182002791642386	6.2804582067134724e-06
H	-0.20690327510492956	-2.495905179164238	-1.9695417932865278e-06
H	4.45291473489507	-2.9249336391642387	8.304582067134725e-07
H	6.73300429489507	-1.9023288091642385	8.330458206713472e-06
H	6.98215220489507	0.5697490608357616	1.8904582067134725e-06
H	4.94345297489507	2.0186548908357618	-5.6695417932865275e-06
H	0.2068421548950703	2.4953597308357613	1.6104582067134727e-06
C	-0.0705418756260488	-0.7113562263013757	3.8103052732149765
C	0.06754486077806063	0.6812916124618265	3.8120516545127865
C	0.13693353192782384	1.3809711496125132	5.0133255393363
C	0.0668559598001769	0.6743481535538318	6.205844915266608
C	-0.07193414201834848	-0.7253620645074701	6.235294262610132
C	-0.13935892630472446	-1.4056235563532424	5.008572108129881
O	0.13712497786404976	1.3830424199729048	7.380210377588637
C	0.07064874052500979	0.7124094952486713	8.563124351960676
C	-0.0737894175601245	-0.7441941012459474	8.534569481736437
N	-0.1417626521185874	-1.429734657813461	7.422248585427623
C	0.14016503824909438	1.4137403368456625	9.721773761011013
C	0.07372917974172444	0.743630488295593	10.989048723614005
C	-0.0707007458383667	-0.7129707535526907	10.960621253688437
C	-0.1402258030082575	-1.4143235542800288	9.80192405276323
N	0.14172994965300761	1.4294097298524484	12.10123811505634
C	0.07191400327290025	0.7252329656970062	13.288293752550118
C	-0.0668717840064242	-0.6744659673926543	13.318038832875514
O	-0.13716338239765669	-1.3834276931121066	12.143728479604983
C	0.13938728248382992	1.4059482773152094	14.514754350668866
C	0.07062663771210456	0.7121393518116138	15.713272946723514
C	-0.06747393417991764	-0.6805183985409268	15.711914606682491
C	-0.13690466839835472	-1.3806436428461157	14.510869087119865
H	0.24387961799390542	2.4595766075944985	5.04313096351868
H	0.12135560873862945	1.2238199706876254	2.874430266315084
H	-0.12380650246603063	-1.2485942476472005	2.8696537406154023
H	-0.24630820471064296	-2.484034494343156	5.04071023225639
H	-0.24708382176565347	-2.4919404867327493	9.80223329431757
H	-0.24384729660457838	-2.4592705766484033	14.481644743175016
H	-0.12124949978465209	-1.2227512186103078	16.649712707383827
H	0.1239115625010443	1.2497219458541977	16.653735266818437
H	0.24633726308265488	2.484353020562907	14.48202609847465
H	0.24702436599525748	2.491356484875643	9.721492510309275
