64
115a_H_capped PD long
C	-5.99305014510493	-0.12412247916423835	7.360458206713472e-06
C	-5.85323169510493	1.2683536608357615	6.660458206713472e-06
C	-4.58844615510493	1.8495100308357615	-6.209541793286527e-06
C	-3.4718071051049293	1.0252245108357616	7.090458206713472e-06
C	-3.5812823051049296	-0.3773922691642384	1.0880458206713472e-05
C	-4.86946627510493	-0.9366159291642382	-1.4579541793286527e-05
O	-2.2329050151049294	1.6180492308357617	7.650458206713472e-06
C	-1.1222557751049296	0.8307047408357616	-1.1679541793286528e-05
C	-1.2950931951049296	-0.6230830791642386	-1.0495417932865273e-06
N	-2.4699577751049295	-1.1988757591642383	-1.6195417932865273e-06
C	0.10027664489507049	1.4177144508357615	1.1380458206713472e-05
C	1.2949269948950703	0.6225683608357616	3.4804582067134726e-06
C	1.1222166648950702	-0.8312288891642385	6.150458206713473e-06
C	-0.10036555510492962	-1.4182564891642384	-1.0359541793286528e-05
N	2.4696844148950703	1.1986130808357616	2.0045820671347251e-07
C	3.58112911489507	0.3773147508357617	-5.479541793286528e-06
C	3.47194935489507	-1.0253196091642383	-4.8695417932865275e-06
O	2.2330756248950703	-1.6184168391642384	-9.349541793286528e-06
C	4.86909783489507	0.9370183808357616	1.6500458206713475e-05
C	5.99297779489507	0.12495957083576159	-1.6339541793286525e-05
C	5.85354438489507	-1.2675660291642386	-2.8495417932865274e-06
C	4.58894192489507	-1.8491904291642385	7.900458206713473e-06
H	-4.4518427951049295	2.9251749808357617	-4.6995417932865275e-06
H	-6.73248639510493	1.9033951208357616	-1.0369541793286528e-05
H	-6.98237881510493	-0.5685500891642383	2.9304582067134723e-06
H	-4.944409265104929	-2.0182002791642386	6.2804582067134724e-06
H	-0.20690327510492956	-2.495905179164238	-1.9695417932865278e-06
H	4.45291473489507	-2.9249336391642387	8.304582067134725e-07
H	6.73300429489507	-1.9023288091642385	8.330458206713472e-06
H	6.98215220489507	0.5697490608357616	1.8904582067134725e-06
H	4.94345297489507	2.0186548908357618	-5.6695417932865275e-06
H	0.2068421548950703	2.4953597308357613	1.6104582067134727e-06
C	-2.0166164020961275	-0.5183991854892028	3.500007749629451
C	-1.8767979520961278	0.874076954510797	3.500007049629451
C	-0.6120124120961276	1.455233324510797	3.499994179629451
C	0.5046266379038732	0.6309478045107971	3.500007479629451
C	0.3951514379038728	-0.7716689754892029	3.500011269629451
C	-0.8930325320961275	-1.3308926354892028	3.499985809629451
O	1.743528727903873	1.223772524510797	3.500008039629451
C	2.854177967903873	0.43642803451079715	3.499988709629451
C	2.681340547903873	-1.0173597854892031	3.499999339629451
N	1.5064759679038728	-1.5931524654892029	3.499998769629451
C	4.076710387903873	1.0234377445107972	3.500011769629451
C	5.271360737903873	0.22829165451079714	3.500003869629451
C	5.098650407903873	-1.2255055954892031	3.500006539629451
C	3.876068187903873	-1.812533195489203	3.4999900296294513
N	6.446118157903872	0.8043363745107971	3.500000589629451
C	7.557562857903872	-0.016961955489202766	3.499994909629451
C	7.448383097903872	-1.4195963154892028	3.499995519629451
O	6.209509367903872	-2.012693545489203	3.499991039629451
C	8.845531577903872	0.5427416745107971	3.500016889629451
C	9.969411537903872	-0.2693171354892029	3.499984049629451
C	9.829978127903871	-1.6618427354892031	3.499997539629451
C	8.565375667903872	-2.2434671354892033	3.500008289629451
H	-0.4754090520961271	2.530898274510797	3.499995689629451
H	-2.7560526520961273	1.509118414510797	3.499990019629451
H	-3.0059450720961274	-0.9628267954892028	3.500003319629451
H	-0.9679755220961269	-2.4124769854892034	3.500006669629451
H	3.769530467903873	-2.890181885489203	3.499998419629451
H	8.429348477903872	-3.3192103454892035	3.500001219629451
H	10.709438037903872	-2.2966055154892033	3.500008719629451
H	10.958585947903872	0.17547235451079712	3.500002279629451
H	8.919886717903871	1.6243781845107972	3.499994719629451
H	4.183275897903873	2.1010830245107965	3.500001999629451
