64
115a_H_capped TL90.0
C	-5.99305014510493	-0.12412247916423835	7.360458206713472e-06
C	-5.85323169510493	1.2683536608357615	6.660458206713472e-06
C	-4.58844615510493	1.8495100308357615	-6.209541793286527e-06
C	-3.4718071051049293	1.0252245108357616	7.090458206713472e-06
C	-3.5812823051049296	-0.3773922691642384	1.0880458206713472e-05
C	-4.86946627510493	-0.9366159291642382	-1.4579541793286527e-05
O	-2.2329050151049294	1.6180492308357617	7.650458206713472e-06
C	-1.1222557751049296	0.8307047408357616	-1.1679541793286528e-05
C	-1.2950931951049296	-0.6230830791642386	-1.0495417932865273e-06
N	-2.4699577751049295	-1.1988757591642383	-1.6195417932865273e-06
C	0.10027664489507049	1.4177144508357615	1.1380458206713472e-05
C	1.2949269948950703	0.6225683608357616	3.4804582067134726e-06
C	1.1222166648950702	-0.8312288891642385	6.150458206713473e-06
C	-0.10036555510492962	-1.4182564891642384	-1.0359541793286528e-05
N	2.4696844148950703	1.1986130808357616	2.0045820671347251e-07
C	3.58112911489507	0.3773147508357617	-5.479541793286528e-06
C	3.47194935489507	-1.0253196091642383	-4.8695417932865275e-06
O	2.2330756248950703	-1.6184168391642384	-9.349541793286528e-06
C	4.86909783489507	0.9370183808357616	1.6500458206713475e-05
C	5.99297779489507	0.12495957083576159	-1.6339541793286525e-05
C	5.85354438489507	-1.2675660291642386	-2.8495417932865274e-06
C	4.58894192489507	-1.8491904291642385	7.900458206713473e-06
H	-4.4518427951049295	2.9251749808357617	-4.6995417932865275e-06
H	-6.73248639510493	1.9033951208357616	-1.0369541793286528e-05
H	-6.98237881510493	-0.5685500891642383	2.9304582067134723e-06
H	-4.944409265104929	-2.0182002791642386	6.2804582067134724e-06
H	-0.20690327510492956	-2.495905179164238	-1.9695417932865278e-06
H	4.45291473489507	-2.9249336391642387	8.304582067134725e-07
H	6.73300429489507	-1.9023288091642385	8.330458206713472e-06
H	6.98215220489507	0.5697490608357616	1.8904582067134725e-06
H	4.94345297489507	2.0186548908357618	-5.6695417932865275e-06
H	0.2068421548950703	2.4953597308357613	1.6104582067134727e-06
C	-5.922517823374242	0.5872297902905688	-6.088979367909049
C	-5.920782755151689	0.5870584590786239	-4.689502337152891
C	-4.725370728730076	0.46854447767966023	-3.9863880419989353
C	-3.538670186543108	0.3508679548236918	-4.696474970328945
C	-3.509362038010051	0.3479581988851079	-6.103049254438005
C	-4.730094415624906	0.46902124943794954	-6.786646535847601
O	-2.3700366249130687	0.23499560294757504	-3.9843031273357337
C	-1.1928914685314238	0.11829930107977177	-4.65822028437894
C	-1.2213050603814901	0.12110586965886169	-6.1219677319998045
N	-2.3281968529120753	0.23085644158541324	-6.810872197996872
C	-0.03989947760173883	0.003955224320643397	-3.953450237428016
C	1.2211938934469342	-0.12107615633271615	-4.626842713335512
C	1.192907865626251	-0.11827423688873387	-6.090587005239313
C	0.039867669798138744	-0.003931962658710008	-6.795379768555624
N	2.3279552021768555	-0.23080992171420125	-3.937698010439723
C	3.509220534265245	-0.3479284621816033	-4.64532484058117
C	3.5388232864720477	-0.35086423292792296	-6.051887468464673
O	2.3702449523114058	-0.23499341771743576	-6.764327693501588
C	4.729692974229948	-0.4689622424582577	-3.9612711694885547
C	5.9223679891689285	-0.5871847770970988	-4.658476603711893
C	5.921017806794645	-0.587064460616076	-6.057964862038153
C	4.725833241401939	-0.4685709019275317	-6.761526839283474
H	-4.695713106475188	0.46560236207178046	-2.902493521290389
H	-6.853828395196504	0.6795884621697906	-4.144313823148467
H	-6.858577847360083	0.6800460123349199	-6.628853333066609
H	-4.698112954581763	0.465829276809039	-7.87034767352832
H	0.0401767880457223	-0.003971043341827303	-7.878281836071665
H	4.696754412602605	-0.46568058730474343	-7.845442388635648
H	6.854239873661183	-0.679606078008643	-6.602855808245966
H	6.858238361605143	-0.6799960625709719	-4.118257744886667
H	4.69712439395307	-0.46571073964375603	-2.8775761282481214
H	-0.040180605417079976	0.003992916476789476	-2.870548821291836
