56
84n_F PD short
C	1.0881572761594884	-0.004316717112587021	-2.507422892635315e-06
C	2.4338341761594884	-0.013339087112587023	7.125771073646851e-07
S	3.397048826159488	1.4895440228874128	2.272577107364685e-06
C	4.965238046159488	0.673425872887413	-1.3874228926353148e-06
C	4.954745346159489	-0.7377229371125871	-1.9742289263531488e-07
S	3.3747639461594883	-1.5303623771125872	1.592577107364685e-06
S	0.14700826615948825	1.5101592328874132	1.372577107364685e-06
C	-1.4376951338405117	0.729161012887413	1.1182577107364684e-05
C	-1.4459926738405118	-0.7078887671125871	-1.2407422892635315e-05
S	0.1290955061594885	-1.5074917671125871	-4.877422892635315e-06
N	-2.5300705638405114	1.4314803428874132	-3.507422892635315e-06
C	-3.7073154538405113	0.7371922728874131	1.4725771073646851e-06
C	-3.715494083840512	-0.6899122571125871	-1.3574228926353149e-06
N	-2.546349743840511	-1.397556417112587	6.042577107364685e-06
C	-4.930370403840512	1.442709992887413	1.1902577107364684e-05
C	-6.107249523840511	0.742933912887413	-2.4327422892635314e-05
C	-6.115226963840512	-0.668914017112587	2.3352577107364687e-05
C	-4.946265603840511	-1.381793387112587	-1.0627422892635315e-05
N	6.086900756159489	1.3624990528874128	-3.547422892635315e-06
C	7.222514876159488	0.645021152887413	-3.8742289263531486e-07
C	7.212064116159489	-0.7432423471125871	-4.2742289263531485e-07
N	6.065881936159489	-1.443686607112587	2.902577107364685e-06
F	-7.286005013840511	1.3809153128874132	9.92577107364685e-07
F	-7.301010123840512	-1.2937051871125869	1.225771073646851e-07
H	-4.929846363840512	2.525557382887413	1.0257710736468511e-07
H	-4.957385403840511	-2.464570807112587	-1.0474228926353149e-06
H	8.132403886159487	-1.317715757112587	4.322577107364685e-06
H	8.151447826159488	1.2054278828874132	-2.497422892635315e-06
C	1.076822756672493	-1.8021697964010404	3.4999967934273672
C	2.422499656672493	-1.8111921664010404	3.500000013427367
S	3.385714306672493	-0.3083090564010405	3.500001573427367
C	4.953903526672493	-1.1244272064010403	3.499997913427367
C	4.943410826672493	-2.5355760164010404	3.499999103427367
S	3.363429426672493	-3.3282154564010407	3.500000893427367
S	0.13567374667249288	-0.2876938464010402	3.500000673427367
C	-1.449029653327507	-1.0686920664010404	3.500010483427367
C	-1.4573271933275072	-2.5057418464010404	3.499986893427367
S	0.11776098667249313	-3.3053448464010406	3.499994423427367
N	-2.541405083327507	-0.3663727364010401	3.499995793427367
C	-3.7186499733275067	-1.0606608064010403	3.500000773427367
C	-3.7268286033275073	-2.487765336401041	3.499997943427367
N	-2.5576842633275065	-3.1954094964010404	3.5000053434273672
C	-4.941704923327507	-0.35514308640104036	3.500011203427367
C	-6.118584043327506	-1.0549191664010402	3.499974973427367
C	-6.1265614833275075	-2.4667670964010404	3.5000226534273673
C	-4.957600123327507	-3.1796464664010404	3.499988673427367
N	6.075566236672493	-0.43535402640104054	3.499995753427367
C	7.211180356672493	-1.1528319264010403	3.4999989134273672
C	7.200729596672494	-2.5410954264010406	3.499998873427367
N	6.054547416672493	-3.2415396864010404	3.5000022034273672
F	-7.297339533327507	-0.41693776640104013	3.5000002934273673
F	-7.312344643327507	-3.0915582664010404	3.4999994234273673
H	-4.941180883327507	0.7277043035989595	3.499999403427367
H	-4.968719923327506	-4.262423886401041	3.4999982534273673
H	8.121069366672492	-3.1155688364010405	3.500003623427367
H	8.140113306672493	-0.5924251964010402	3.499996803427367
