56
84n_F PD long+short
C	1.0881572761594884	-0.004316717112587021	-2.507422892635315e-06
C	2.4338341761594884	-0.013339087112587023	7.125771073646851e-07
S	3.397048826159488	1.4895440228874128	2.272577107364685e-06
C	4.965238046159488	0.673425872887413	-1.3874228926353148e-06
C	4.954745346159489	-0.7377229371125871	-1.9742289263531488e-07
S	3.3747639461594883	-1.5303623771125872	1.592577107364685e-06
S	0.14700826615948825	1.5101592328874132	1.372577107364685e-06
C	-1.4376951338405117	0.729161012887413	1.1182577107364684e-05
C	-1.4459926738405118	-0.7078887671125871	-1.2407422892635315e-05
S	0.1290955061594885	-1.5074917671125871	-4.877422892635315e-06
N	-2.5300705638405114	1.4314803428874132	-3.507422892635315e-06
C	-3.7073154538405113	0.7371922728874131	1.4725771073646851e-06
C	-3.715494083840512	-0.6899122571125871	-1.3574228926353149e-06
N	-2.546349743840511	-1.397556417112587	6.042577107364685e-06
C	-4.930370403840512	1.442709992887413	1.1902577107364684e-05
C	-6.107249523840511	0.742933912887413	-2.4327422892635314e-05
C	-6.115226963840512	-0.668914017112587	2.3352577107364687e-05
C	-4.946265603840511	-1.381793387112587	-1.0627422892635315e-05
N	6.086900756159489	1.3624990528874128	-3.547422892635315e-06
C	7.222514876159488	0.645021152887413	-3.8742289263531486e-07
C	7.212064116159489	-0.7432423471125871	-4.2742289263531485e-07
N	6.065881936159489	-1.443686607112587	2.902577107364685e-06
F	-7.286005013840511	1.3809153128874132	9.92577107364685e-07
F	-7.301010123840512	-1.2937051871125869	1.225771073646851e-07
H	-4.929846363840512	2.525557382887413	1.0257710736468511e-07
H	-4.957385403840511	-2.464570807112587	-1.0474228926353149e-06
H	8.132403886159487	-1.317715757112587	4.322577107364685e-06
H	8.151447826159488	1.2054278828874132	-2.497422892635315e-06
C	5.6985741105148815	-1.831307487053699	3.4999968059762088
C	7.044251010514882	-1.840329857053699	3.5000000259762087
S	8.007465660514882	-0.3374467470536991	3.5000015859762086
C	9.57565488051488	-1.153564897053699	3.4999979259762086
C	9.565162180514882	-2.5647137070536994	3.499999115976209
S	7.985180780514882	-3.3573531470536992	3.5000009059762087
S	4.757425100514881	-0.31683153705369876	3.5000006859762087
C	3.172721700514882	-1.097829757053699	3.5000104959762086
C	3.1644241605148817	-2.5348795370536994	3.4999869059762085
S	4.739512340514882	-3.3344825370536992	3.499994435976209
N	2.080346270514882	-0.3955104270536987	3.4999958059762086
C	0.903101380514882	-1.089798497053699	3.5000007859762086
C	0.8949227505148813	-2.516903027053699	3.499997955976209
N	2.0640670905148824	-3.224547187053699	3.5000053559762088
C	-0.3199535694851187	-0.38428077705369895	3.5000112159762087
C	-1.4968326894851176	-1.0840568570536988	3.4999749859762086
C	-1.5048101294851188	-2.495904787053699	3.500022665976209
C	-0.33584876948511794	-3.208784157053699	3.499988685976209
N	10.697317590514883	-0.4644917170536991	3.499995765976209
C	11.832931710514883	-1.1819696170536989	3.4999989259762088
C	11.822480950514882	-2.570233117053699	3.4999988859762086
N	10.676298770514881	-3.270677377053699	3.5000022159762088
F	-2.6755881794851177	-0.4460754570536987	3.500000305976209
F	-2.6905932894851183	-3.120695957053699	3.4999994359762088
H	-0.31942952948511855	0.698566612946301	3.499999415976209
H	-0.3469685694851174	-4.2915615770537	3.4999982659762088
H	12.74282072051488	-3.144706527053699	3.5000036359762086
H	12.761864660514883	-0.6215628870536988	3.4999968159762087
