56
84n_F cofacial 4.0A
C	1.0881572761594884	-0.004316717112587021	-2.507422892635315e-06
C	2.4338341761594884	-0.013339087112587023	7.125771073646851e-07
S	3.397048826159488	1.4895440228874128	2.272577107364685e-06
C	4.965238046159488	0.673425872887413	-1.3874228926353148e-06
C	4.954745346159489	-0.7377229371125871	-1.9742289263531488e-07
S	3.3747639461594883	-1.5303623771125872	1.592577107364685e-06
S	0.14700826615948825	1.5101592328874132	1.372577107364685e-06
C	-1.4376951338405117	0.729161012887413	1.1182577107364684e-05
C	-1.4459926738405118	-0.7078887671125871	-1.2407422892635315e-05
S	0.1290955061594885	-1.5074917671125871	-4.877422892635315e-06
N	-2.5300705638405114	1.4314803428874132	-3.507422892635315e-06
C	-3.7073154538405113	0.7371922728874131	1.4725771073646851e-06
C	-3.715494083840512	-0.6899122571125871	-1.3574228926353149e-06
N	-2.546349743840511	-1.397556417112587	6.042577107364685e-06
C	-4.930370403840512	1.442709992887413	1.1902577107364684e-05
C	-6.107249523840511	0.742933912887413	-2.4327422892635314e-05
C	-6.115226963840512	-0.668914017112587	2.3352577107364687e-05
C	-4.946265603840511	-1.381793387112587	-1.0627422892635315e-05
N	6.086900756159489	1.3624990528874128	-3.547422892635315e-06
C	7.222514876159488	0.645021152887413	-3.8742289263531486e-07
C	7.212064116159489	-0.7432423471125871	-4.2742289263531485e-07
N	6.065881936159489	-1.443686607112587	2.902577107364685e-06
F	-7.286005013840511	1.3809153128874132	9.92577107364685e-07
F	-7.301010123840512	-1.2937051871125869	1.225771073646851e-07
H	-4.929846363840512	2.525557382887413	1.0257710736468511e-07
H	-4.957385403840511	-2.464570807112587	-1.0474228926353149e-06
H	8.132403886159487	-1.317715757112587	4.322577107364685e-06
H	8.151447826159488	1.2054278828874132	-2.497422892635315e-06
C	1.0881572554928878	-0.004318272504295109	3.9999974925768047
C	2.433834155492888	-0.01334064250429511	4.000000712576805
S	3.397048805492888	1.4895424674957047	4.000002272576804
C	4.965238025492887	0.6734243174957049	3.9999986125768046
C	4.954745325492888	-0.7377244925042952	3.9999998025768044
S	3.374763925492888	-1.5303639325042953	4.000001592576805
S	0.14700824549288768	1.510157677495705	4.000001372576804
C	-1.4376951545071124	0.7291594574957049	4.000011182576804
C	-1.4459926945071124	-0.7078903225042952	3.9999875925768045
S	0.12909548549288793	-1.5074933225042952	3.9999951225768045
N	-2.530070584507112	1.4314787874957051	3.9999964925768046
C	-3.7073154745071117	0.737190717495705	4.0000014725768045
C	-3.7154941045071124	-0.6899138125042952	3.9999986425768044
N	-2.5463497645071116	-1.397557972504295	4.000006042576804
C	-4.930370424507113	1.4427084374957049	4.000011902576804
C	-6.107249544507112	0.7429323574957049	3.9999756725768045
C	-6.115226984507113	-0.6689155725042951	4.000023352576805
C	-4.946265624507112	-1.381794942504295	3.9999893725768043
N	6.086900735492888	1.3624974974957047	3.9999964525768044
C	7.2225148554928875	0.6450195974957049	3.9999996125768047
C	7.212064095492888	-0.7432439025042952	3.9999995725768045
N	6.065881915492888	-1.443688162504295	4.000002902576805
F	-7.286005034507112	1.380913757495705	4.000000992576805
F	-7.301010144507113	-1.293706742504295	4.000000122576805
H	-4.929846384507113	2.525555827495705	4.000000102576805
H	-4.957385424507112	-2.464572362504295	3.9999989525768047
H	8.132403865492886	-1.3177173125042951	4.000004322576805
H	8.151447805492888	1.205426327495705	3.9999975025768046
