56
84n_F TS90.0anti
C	1.0881572761594884	-0.004316717112587021	-2.507422892635315e-06
C	2.4338341761594884	-0.013339087112587023	7.125771073646851e-07
S	3.397048826159488	1.4895440228874128	2.272577107364685e-06
C	4.965238046159488	0.673425872887413	-1.3874228926353148e-06
C	4.954745346159489	-0.7377229371125871	-1.9742289263531488e-07
S	3.3747639461594883	-1.5303623771125872	1.592577107364685e-06
S	0.14700826615948825	1.5101592328874132	1.372577107364685e-06
C	-1.4376951338405117	0.729161012887413	1.1182577107364684e-05
C	-1.4459926738405118	-0.7078887671125871	-1.2407422892635315e-05
S	0.1290955061594885	-1.5074917671125871	-4.877422892635315e-06
N	-2.5300705638405114	1.4314803428874132	-3.507422892635315e-06
C	-3.7073154538405113	0.7371922728874131	1.4725771073646851e-06
C	-3.715494083840512	-0.6899122571125871	-1.3574228926353149e-06
N	-2.546349743840511	-1.397556417112587	6.042577107364685e-06
C	-4.930370403840512	1.442709992887413	1.1902577107364684e-05
C	-6.107249523840511	0.742933912887413	-2.4327422892635314e-05
C	-6.115226963840512	-0.668914017112587	2.3352577107364687e-05
C	-4.946265603840511	-1.381793387112587	-1.0627422892635315e-05
N	6.086900756159489	1.3624990528874128	-3.547422892635315e-06
C	7.222514876159488	0.645021152887413	-3.8742289263531486e-07
C	7.212064116159489	-0.7432423471125871	-4.2742289263531485e-07
N	6.065881936159489	-1.443686607112587	2.902577107364685e-06
F	-7.286005013840511	1.3809153128874132	9.92577107364685e-07
F	-7.301010123840512	-1.2937051871125869	1.225771073646851e-07
H	-4.929846363840512	2.525557382887413	1.0257710736468511e-07
H	-4.957385403840511	-2.464570807112587	-1.0474228926353149e-06
H	8.132403886159487	-1.317715757112587	4.322577107364685e-06
H	8.151447826159488	1.2054278828874132	-2.497422892635315e-06
C	1.85976143443429e-05	0.0025472798880982854	-9.925523536810596
C	1.1978774392950148e-05	0.002008207331216721	-8.579816498959726
S	0.009523790186608757	1.5109035369485684	-7.626095096241443
C	0.004444472519478001	0.7047033987014306	-6.052792263942664
C	-0.004453874348456515	-0.7064554622279563	-6.054388936299681
S	-0.009515741122753758	-1.5090233219909508	-7.629342178200178
S	0.009525488912701033	1.5110302184124924	-10.876201034896088
C	0.00452880795002982	0.7200733998502588	-12.455949568701463
C	-0.004507967623032815	-0.7169717199669775	-12.455187846117054
S	-0.009494079325980797	-1.5066138041830486	-10.875090301670385
N	0.008927929422061286	1.4154785746043719	-13.552730682794245
C	0.004498946194833518	0.7137969785371759	-14.725575419768582
C	-0.00449588333837735	-0.7133024060769045	-14.724757483959309
N	-0.00891823475866638	-1.4135483069926824	-13.551175417783504
C	0.00888791893511385	1.4115767930550431	-15.953053619750962
C	0.004465559675361621	0.7044094510413538	-17.125497997822954
C	-0.0044835839776250375	-0.707432353222933	-17.124575052937207
C	-0.008897569438888538	-1.412914670431252	-15.951142960595252
N	0.00883554886612305	1.400819949193081	-4.935495728109564
C	0.004354106836757523	0.690529303574671	-3.7953812242258147
C	-0.0043987254837054585	-0.6977449002979808	-3.797080225389589
N	-0.008863636527666773	-1.4053866380453603	-4.938824061236679
F	0.008415613369757356	1.3349349799207595	-18.30825187209239
F	-0.008446546415859799	-1.3396738130874768	-18.30639599561264
H	0.0157266676812712	2.4943843746122814	-15.959355811808154
H	-0.015734078221658787	-2.4957190926367816	-15.955436759086753
H	-0.007988726278189116	-1.2663937824982738	-2.8731372879037878
H	0.00792628167660524	1.25676958253564	-2.8699995112670127
