64
129e_F cofacial 4.0A
C	-5.220057821184123	0.33413511061543666	1.283058408058364e-05
C	-5.267058231184123	1.7226649906154365	-1.284941591941636e-05
C	-4.1189053411841225	2.509582150615437	-1.584941591941636e-05
C	-2.906367811184123	1.8430411706154366	3.017058408058364e-05
C	-2.8225376511841227	0.4388557906154367	4.373058408058364e-05
C	-3.984333511184123	-0.3219369093845633	-3.566941591941636e-05
C	-1.3940585111841228	0.04982589061543667	-7.411941591941637e-05
C	-0.6096984211841228	1.2198712506154366	6.305058408058364e-05
C	-1.5195004011841227	2.414812530615437	-6.713941591941636e-05
O	-1.1990569211841227	3.580628290615437	2.203058408058364e-05
C	0.7795013988158773	1.2006779606154365	3.1305840805836404e-06
C	1.3940395288158771	-0.04987253938456333	-4.059941591941636e-05
C	0.6096871088158772	-1.2199214893845634	3.441058408058364e-05
C	-0.7795170211841227	-1.2007270393845633	1.780058408058364e-05
C	1.519511948815877	-2.414853019384563	-5.541941591941636e-05
C	2.822518348815877	-0.4388771993845633	3.937058408058364e-05
C	2.906376548815877	-1.8430589293845634	1.8230584080583642e-05
O	1.1990887788158773	-3.5806739693845633	1.524058408058364e-05
C	3.984288638815877	0.3219519606154367	-5.733941591941636e-05
C	5.220031408815877	-0.33408169938456334	4.329058408058364e-05
C	5.267066588815877	-1.7226106993845633	-4.332941591941636e-05
C	4.118936078815877	-2.509562989384563	1.430058408058364e-05
H	-4.180322241184123	3.591965930615437	7.47058408058364e-06
F	-6.472129431184123	2.3289341806154367	1.039058408058364e-05
H	-6.150917221184123	-0.22116425938456333	-4.29941591941636e-06
H	-3.952683941184123	-1.4062441093845635	1.069058408058364e-05
H	-1.3364664311841228	-2.132118679384563	2.058408058364021e-08
H	4.180397438815877	-3.5919442793845633	5.850584080583641e-06
F	6.472155088815877	-2.328846339384563	8.79058408058364e-06
H	6.150875708815877	0.22124351061543668	-5.41941591941636e-06
H	3.952598168815877	1.4062580106154365	1.393058408058364e-05
H	1.3364482788158774	2.132070760615437	-4.25941591941636e-06
C	-5.22005787895968	0.334134523944439	4.000012830584037
C	-5.26705828895968	1.7226644039444388	3.999987150584037
C	-4.118905398959679	2.5095815639444394	3.9999841505840372
C	-2.90636786895968	1.8430405839444388	4.000030170584037
C	-2.82253770895968	0.43885520394443905	4.0000437305840375
C	-3.98433356895968	-0.321937496055561	3.999964330584037
C	-1.39405856895968	0.04982530394443897	3.999925880584037
C	-0.60969847895968	1.2198706639444388	4.000063050584037
C	-1.51950045895968	2.4148119439444393	3.999932860584037
O	-1.1990569789596799	3.5806277039444394	4.000022030584037
C	0.7795013410403201	1.2006773739444387	4.000003130584037
C	1.3940394710403199	-0.04987312605556103	3.999959400584037
C	0.60968705104032	-1.2199220760555611	4.000034410584037
C	-0.7795170789596799	-1.200727626055561	4.000017800584037
C	1.5195118910403198	-2.4148536060555608	3.999944580584037
C	2.82251829104032	-0.438877786055561	4.000039370584037
C	2.90637649104032	-1.8430595160555612	4.000018230584037
O	1.19908872104032	-3.580674556055561	4.0000152405840375
C	3.9842885810403197	0.321951373944439	3.999942660584037
C	5.22003135104032	-0.334082286055561	4.000043290584037
C	5.26706653104032	-1.7226112860555611	3.9999566705840373
C	4.11893602104032	-2.5095635760555606	4.000014300584037
H	-4.1803222989596796	3.5919653439444392	4.000007470584037
F	-6.47212948895968	2.328933593944439	4.000010390584037
H	-6.15091727895968	-0.22116484605556103	3.999995700584037
H	-3.9526839989596803	-1.4062446960555612	4.000010690584037
H	-1.33646648895968	-2.1321192660555606	4.000000020584037
H	4.18039738104032	-3.591944866055561	4.000005850584037
F	6.47215503104032	-2.3288469260555607	4.000008790584037
H	6.15087565104032	0.22124292394443898	3.999994580584037
H	3.9525981110403197	1.4062574239444388	4.000013930584037
H	1.3364482210403201	2.1320701739444394	3.999995740584037
