64
129e_F PD long+short
C	-5.220057821184123	0.33413511061543666	1.283058408058364e-05
C	-5.267058231184123	1.7226649906154365	-1.284941591941636e-05
C	-4.1189053411841225	2.509582150615437	-1.584941591941636e-05
C	-2.906367811184123	1.8430411706154366	3.017058408058364e-05
C	-2.8225376511841227	0.4388557906154367	4.373058408058364e-05
C	-3.984333511184123	-0.3219369093845633	-3.566941591941636e-05
C	-1.3940585111841228	0.04982589061543667	-7.411941591941637e-05
C	-0.6096984211841228	1.2198712506154366	6.305058408058364e-05
C	-1.5195004011841227	2.414812530615437	-6.713941591941636e-05
O	-1.1990569211841227	3.580628290615437	2.203058408058364e-05
C	0.7795013988158773	1.2006779606154365	3.1305840805836404e-06
C	1.3940395288158771	-0.04987253938456333	-4.059941591941636e-05
C	0.6096871088158772	-1.2199214893845634	3.441058408058364e-05
C	-0.7795170211841227	-1.2007270393845633	1.780058408058364e-05
C	1.519511948815877	-2.414853019384563	-5.541941591941636e-05
C	2.822518348815877	-0.4388771993845633	3.937058408058364e-05
C	2.906376548815877	-1.8430589293845634	1.8230584080583642e-05
O	1.1990887788158773	-3.5806739693845633	1.524058408058364e-05
C	3.984288638815877	0.3219519606154367	-5.733941591941636e-05
C	5.220031408815877	-0.33408169938456334	4.329058408058364e-05
C	5.267066588815877	-1.7226106993845633	-4.332941591941636e-05
C	4.118936078815877	-2.509562989384563	1.430058408058364e-05
H	-4.180322241184123	3.591965930615437	7.47058408058364e-06
F	-6.472129431184123	2.3289341806154367	1.039058408058364e-05
H	-6.150917221184123	-0.22116425938456333	-4.29941591941636e-06
H	-3.952683941184123	-1.4062441093845635	1.069058408058364e-05
H	-1.3364664311841228	-2.132118679384563	2.058408058364021e-08
H	4.180397438815877	-3.5919442793845633	5.850584080583641e-06
F	6.472155088815877	-2.328846339384563	8.79058408058364e-06
H	6.150875708815877	0.22124351061543668	-5.41941591941636e-06
H	3.952598168815877	1.4062580106154365	1.393058408058364e-05
H	1.3364482788158774	2.132070760615437	-4.25941591941636e-06
C	-2.1256882069128915	-3.252279259708315	3.5000123492675264
C	-2.1726886169128914	-1.8637493797083151	3.4999866692675266
C	-1.0245357269128912	-1.0768322197083147	3.4999836692675266
C	0.1880018030871085	-1.743373199708315	3.5000296892675262
C	0.2718319630871087	-3.1475585797083148	3.5000432492675264
C	-0.8899638969128915	-3.908351279708315	3.4999638492675262
C	1.7003111030871085	-3.536588479708315	3.4999253992675263
C	2.484671193087109	-2.3665431197083153	3.5000625692675262
C	1.5748692130871087	-1.1716018397083148	3.4999323792675265
O	1.8953126930871087	-0.005786079708314639	3.5000215492675264
C	3.873871013087109	-2.385736409708315	3.5000026492675262
C	4.488409143087108	-3.636286909708315	3.4999589192675264
C	3.704056723087109	-4.806335859708315	3.500033929267526
C	2.314852593087109	-4.7871414097083145	3.5000173192675264
C	4.613881563087109	-6.001267389708315	3.4999440992675264
C	5.916887963087108	-4.025291569708315	3.5000388892675263
C	6.000746163087108	-5.429473299708315	3.5000177492675264
O	4.293458393087109	-7.167088339708315	3.5000147592675264
C	7.078658253087108	-3.264462409708315	3.4999421792675265
C	8.314401023087107	-3.920496069708315	3.5000428092675264
C	8.361436203087107	-5.309025069708315	3.4999561892675266
C	7.213305693087108	-6.095977359708315	3.5000138192675263
H	-1.0859526269128914	0.0055515602916851765	3.5000069892675265
F	-3.3777598169128913	-1.257480189708315	3.5000099092675265
H	-3.0565476069128916	-3.807578629708315	3.4999952192675265
H	-0.8583143269128916	-4.992658479708315	3.5000102092675265
H	1.7579031830871086	-5.718533049708315	3.4999995392675265
H	7.274767053087109	-7.178358649708315	3.5000053692675266
F	9.566524703087108	-5.915260709708314	3.5000083092675265
H	9.245245323087108	-3.365170859708315	3.4999940992675262
H	7.0469677830871085	-2.180156359708315	3.5000134492675263
H	4.4308178930871085	-1.4543436097083147	3.4999952592675263
