64
129e_F PD long
C	-5.220057821184123	0.33413511061543666	1.283058408058364e-05
C	-5.267058231184123	1.7226649906154365	-1.284941591941636e-05
C	-4.1189053411841225	2.509582150615437	-1.584941591941636e-05
C	-2.906367811184123	1.8430411706154366	3.017058408058364e-05
C	-2.8225376511841227	0.4388557906154367	4.373058408058364e-05
C	-3.984333511184123	-0.3219369093845633	-3.566941591941636e-05
C	-1.3940585111841228	0.04982589061543667	-7.411941591941637e-05
C	-0.6096984211841228	1.2198712506154366	6.305058408058364e-05
C	-1.5195004011841227	2.414812530615437	-6.713941591941636e-05
O	-1.1990569211841227	3.580628290615437	2.203058408058364e-05
C	0.7795013988158773	1.2006779606154365	3.1305840805836404e-06
C	1.3940395288158771	-0.04987253938456333	-4.059941591941636e-05
C	0.6096871088158772	-1.2199214893845634	3.441058408058364e-05
C	-0.7795170211841227	-1.2007270393845633	1.780058408058364e-05
C	1.519511948815877	-2.414853019384563	-5.541941591941636e-05
C	2.822518348815877	-0.4388771993845633	3.937058408058364e-05
C	2.906376548815877	-1.8430589293845634	1.8230584080583642e-05
O	1.1990887788158773	-3.5806739693845633	1.524058408058364e-05
C	3.984288638815877	0.3219519606154367	-5.733941591941636e-05
C	5.220031408815877	-0.33408169938456334	4.329058408058364e-05
C	5.267066588815877	-1.7226106993845633	-4.332941591941636e-05
C	4.118936078815877	-2.509562989384563	1.430058408058364e-05
H	-4.180322241184123	3.591965930615437	7.47058408058364e-06
F	-6.472129431184123	2.3289341806154367	1.039058408058364e-05
H	-6.150917221184123	-0.22116425938456333	-4.29941591941636e-06
H	-3.952683941184123	-1.4062441093845635	1.069058408058364e-05
H	-1.3364664311841228	-2.132118679384563	2.058408058364021e-08
H	4.180397438815877	-3.5919442793845633	5.850584080583641e-06
F	6.472155088815877	-2.328846339384563	8.79058408058364e-06
H	6.150875708815877	0.22124351061543668	-5.41941591941636e-06
H	3.952598168815877	1.4062580106154365	1.393058408058364e-05
H	1.3364482788158774	2.132070760615437	-4.25941591941636e-06
C	-1.3246866537829864	-1.1502152561832075	3.5000126691421007
C	-1.3716870637829863	0.23831462381679241	3.4999869891421005
C	-0.22353417378298585	1.0252317838167928	3.4999839891421005
C	0.9890033562170139	0.35869080381679247	3.5000300091421006
C	1.072833516217014	-1.0454945761832075	3.500043569142101
C	-0.08896234378298622	-1.8062872761832076	3.4999641691421006
C	2.501312656217014	-1.4345244761832074	3.4999257191421007
C	3.285672746217014	-0.2644791161832076	3.5000628891421006
C	2.375870766217014	0.9304621638167927	3.4999326991421005
O	2.6963142462170144	2.0962779238167926	3.500021869142101
C	4.674872566217013	-0.2836724061832076	3.5000029691421006
C	5.289410696217013	-1.5342229061832076	3.499959239142101
C	4.505058276217014	-2.7042718561832073	3.5000342491421006
C	3.115854146217014	-2.6850774061832077	3.5000176391421007
C	5.4148831162170135	-3.899203386183207	3.4999444191421007
C	6.717889516217014	-1.9232275661832074	3.5000392091421006
C	6.8017477162170135	-3.3274092961832076	3.500018069142101
O	5.094459946217014	-5.065024336183208	3.5000150791421007
C	7.879659806217013	-1.1623984061832076	3.499942499142101
C	9.115402576217013	-1.8184320661832074	3.500043129142101
C	9.162437756217013	-3.2069610661832075	3.4999565091421005
C	8.014307246217014	-3.9939133561832074	3.5000141391421007
H	-0.28495107378298606	2.1076155638167924	3.500007309142101
F	-2.576758263782986	0.8445838138167925	3.500010229142101
H	-2.2555460537829863	-1.7055146261832075	3.4999955391421005
H	-0.05731277378298632	-2.8905944761832076	3.500010529142101
H	2.558904736217014	-3.616469046183207	3.499999859142101
H	8.075768606217014	-5.076294646183207	3.5000056891421005
F	10.367526256217014	-3.8131967061832075	3.500008629142101
H	10.046246876217014	-1.2631068561832075	3.4999944191421006
H	7.847969336217013	-0.0780923561832076	3.5000137691421007
H	5.231819446217013	0.6477203938167928	3.4999955791421007
