64
129e_F TS90.0
C	-5.220057821184123	0.33413511061543666	1.283058408058364e-05
C	-5.267058231184123	1.7226649906154365	-1.284941591941636e-05
C	-4.1189053411841225	2.509582150615437	-1.584941591941636e-05
C	-2.906367811184123	1.8430411706154366	3.017058408058364e-05
C	-2.8225376511841227	0.4388557906154367	4.373058408058364e-05
C	-3.984333511184123	-0.3219369093845633	-3.566941591941636e-05
C	-1.3940585111841228	0.04982589061543667	-7.411941591941637e-05
C	-0.6096984211841228	1.2198712506154366	6.305058408058364e-05
C	-1.5195004011841227	2.414812530615437	-6.713941591941636e-05
O	-1.1990569211841227	3.580628290615437	2.203058408058364e-05
C	0.7795013988158773	1.2006779606154365	3.1305840805836404e-06
C	1.3940395288158771	-0.04987253938456333	-4.059941591941636e-05
C	0.6096871088158772	-1.2199214893845634	3.441058408058364e-05
C	-0.7795170211841227	-1.2007270393845633	1.780058408058364e-05
C	1.519511948815877	-2.414853019384563	-5.541941591941636e-05
C	2.822518348815877	-0.4388771993845633	3.937058408058364e-05
C	2.906376548815877	-1.8430589293845634	1.8230584080583642e-05
O	1.1990887788158773	-3.5806739693845633	1.524058408058364e-05
C	3.984288638815877	0.3219519606154367	-5.733941591941636e-05
C	5.220031408815877	-0.33408169938456334	4.329058408058364e-05
C	5.267066588815877	-1.7226106993845633	-4.332941591941636e-05
C	4.118936078815877	-2.509562989384563	1.430058408058364e-05
H	-4.180322241184123	3.591965930615437	7.47058408058364e-06
F	-6.472129431184123	2.3289341806154367	1.039058408058364e-05
H	-6.150917221184123	-0.22116425938456333	-4.29941591941636e-06
H	-3.952683941184123	-1.4062441093845635	1.069058408058364e-05
H	-1.3364664311841228	-2.132118679384563	2.058408058364021e-08
H	4.180397438815877	-3.5919442793845633	5.850584080583641e-06
F	6.472155088815877	-2.328846339384563	8.79058408058364e-06
H	6.150875708815877	0.22124351061543668	-5.41941591941636e-06
H	3.952598168815877	1.4062580106154365	1.393058408058364e-05
H	1.3364482788158774	2.132070760615437	-4.25941591941636e-06
C	-0.5506944661350832	-1.4451489301664793	5.1103040211560025
C	-0.09461009431577998	-0.2483218331086665	4.5719582100059535
C	0.3128084594852028	0.8208555716762266	5.364652018889923
C	0.24472077580580315	0.6423027523942785	6.73505601036592
C	-0.21189175981108013	-0.5559444388302228	7.313392191453838
C	-0.6122704792419794	-1.6068786619056439	6.498647262788109
C	-0.1601075249538092	-0.4203783778971387	8.786768303158215
C	0.32853610454378074	0.8623511071399246	9.103089952157962
C	0.6109069434371567	1.6030094205314325	7.827426871812648
O	1.0393670714983105	2.7276649372260193	7.711744956543112
C	0.4983453899258343	1.3078122201522595	10.408070308045096
C	0.16019650392746176	0.42028751386668795	11.427623590035413
C	-0.32864562045259516	-0.8623670010238006	11.111310386635529
C	-0.4983835524244952	-1.3078557859518176	9.806325590191902
C	-0.6108047176850653	-1.603087538712756	12.38699135687587
C	0.211804242517617	0.5559459476413962	12.900990415285973
C	-0.24477109772715336	-0.6423010822905545	13.47935149883116
O	-1.039413351596305	-2.727683917298233	12.50269409899445
C	0.6123564185978224	1.6068407906379811	13.715698467281538
C	0.550656154586979	1.4452037995942058	15.104045299789169
C	0.09468142353450197	0.2483490526502305	15.642423288623178
C	-0.3127970311423125	-0.8208321286097415	14.84976290191015
H	0.6651520414154692	1.7455740063563268	4.921846756735264
F	-0.04569530406548798	-0.11988980450865777	3.2299926792723017
H	-0.8534745530928256	-2.2397808273418396	4.4381872306221375
H	-0.9690934377531438	-2.543156608174433	6.914321155415868
H	-0.8788951733013639	-2.3064798615465993	9.617529682668748
H	-0.6651480427277474	-1.7455283004922189	15.292608823340085
F	0.04570956962886843	0.11997891068796554	16.984393039002292
H	0.8535044495615198	2.2398297918444183	15.77613877896307
H	0.969063888616607	2.543146009232571	13.299986764896133
H	0.8788805962507118	2.3064275043271314	10.596863438343341
