64
129a cofacial 3.5A
C	-1.350537387721661	-0.3441938741657392	1.0264200454838503e-05
C	-0.929419857721661	0.9998866358342609	2.8414200454838505e-05
C	0.4091766422783387	1.3719958558342609	-9.205799545161497e-06
C	1.3505986422783387	0.34460256583426085	-3.94657995451615e-05
C	0.9293898322783388	-0.9994574341657391	3.0974200454838504e-05
C	-0.4091516177216612	-1.3715715141657392	2.9342004548385037e-06
C	-2.1422658477216614	1.888416205834261	-4.47257995451615e-05
C	-3.3087286877216613	0.9498961458342609	8.318420045483851e-05
O	-2.1602252677216613	3.0985176758342607	7.914200454838503e-06
C	-2.8313064177216614	-0.37400993416573913	-5.9625799545161496e-05
C	2.1420180022783386	-1.8881634641657392	2.9694200454838506e-05
C	3.3085905322783384	-0.9498738041657392	-0.00011347579954516149
O	2.159715482278339	-3.098276914165739	2.0042004548385037e-06
C	2.8314447322783387	0.37415354583426086	9.544420045483851e-05
C	3.7279289022783386	1.4336532958342607	-2.1205799545161494e-05
C	5.099396742278339	1.1479981358342608	-1.2635799545161497e-05
C	5.566036802278338	-0.1670319241657392	1.8342004548385036e-06
C	4.663237132278338	-1.235434964165739	2.9344200454838505e-05
C	-4.663482597721662	1.235031425834261	-4.00557995451615e-05
C	-5.565950537721661	0.16632927583426083	3.44842004548385e-05
C	-5.098959617721661	-1.1485763541657392	-3.37157995451615e-05
C	-3.727421587721661	-1.433804774165739	1.3134200454838504e-05
H	-5.005125777721661	2.264940575834261	1.2564200454838503e-05
H	-6.633599507721661	0.35844302583426085	-1.4345799545161497e-05
H	-5.811241317721661	-1.9674588441657392	2.554200454838504e-06
H	-3.3852953477216614	-2.463700614165739	6.154200454838504e-06
H	-0.6832669077216611	-2.421694994165739	5.794200454838504e-06
H	5.004487892278339	-2.265472184165739	-8.715799545161497e-06
H	6.633621552278338	-0.3595160141657391	5.2042004548385036e-06
H	5.811900962278338	1.9666871858342607	3.3420045483850377e-07
H	3.386209812278339	2.463681805834261	9.924200454838502e-06
H	0.6833243722783388	2.422115055834261	-5.235799545161496e-06
C	-1.3505375835377076	-0.344193022961572	3.500010264200346
C	-0.9294200535377076	0.999887487038428	3.500028414200346
C	0.4091764464622922	1.371996707038428	3.499990794200346
C	1.3505984464622922	0.34460341703842806	3.499960534200346
C	0.9293896364622922	-0.9994565829615719	3.500030974200346
C	-0.40915181353770774	-1.371570662961572	3.5000029342003462
C	-2.142266043537708	1.8884170570384282	3.499955274200346
C	-3.3087288835377078	0.949896997038428	3.500083184200346
O	-2.160225463537708	3.098518527038428	3.500007914200346
C	-2.831306613537708	-0.3740090829615719	3.499940374200346
C	2.142017806462292	-1.888162612961572	3.500029694200346
C	3.308590336462292	-0.949872952961572	3.499886524200346
O	2.1597152864622924	-3.0982760629615718	3.500002004200346
C	2.831444536462292	0.37415439703842807	3.5000954442003462
C	3.727928706462292	1.4336541470384279	3.499978794200346
C	5.099396546462292	1.147998987038428	3.499987364200346
C	5.5660366064622915	-0.167031072961572	3.500001834200346
C	4.663236936462291	-1.2354341129615718	3.500029344200346
C	-4.663482793537709	1.235032277038428	3.499959944200346
C	-5.565950733537708	0.16633012703842803	3.500034484200346
C	-5.098959813537708	-1.148575502961572	3.499966284200346
C	-3.7274217835377077	-1.4338039229615718	3.500013134200346
H	-5.005125973537708	2.264941427038428	3.500012564200346
H	-6.633599703537708	0.35844387703842806	3.499985654200346
H	-5.811241513537708	-1.967457992961572	3.500002554200346
H	-3.385295543537708	-2.463699762961572	3.500006154200346
H	-0.6832671035377077	-2.421694142961572	3.500005794200346
H	5.004487696462292	-2.265471332961572	3.499991284200346
H	6.6336213564622915	-0.3595151629615719	3.500005204200346
H	5.8119007664622915	1.9666880370384279	3.500000334200346
H	3.3862096164622923	2.463682657038428	3.500009924200346
H	0.6833241764622922	2.422115907038428	3.499994764200346
