64
129a cofacial 5.0A
C	-1.350537387721661	-0.3441938741657392	1.0264200454838503e-05
C	-0.929419857721661	0.9998866358342609	2.8414200454838505e-05
C	0.4091766422783387	1.3719958558342609	-9.205799545161497e-06
C	1.3505986422783387	0.34460256583426085	-3.94657995451615e-05
C	0.9293898322783388	-0.9994574341657391	3.0974200454838504e-05
C	-0.4091516177216612	-1.3715715141657392	2.9342004548385037e-06
C	-2.1422658477216614	1.888416205834261	-4.47257995451615e-05
C	-3.3087286877216613	0.9498961458342609	8.318420045483851e-05
O	-2.1602252677216613	3.0985176758342607	7.914200454838503e-06
C	-2.8313064177216614	-0.37400993416573913	-5.9625799545161496e-05
C	2.1420180022783386	-1.8881634641657392	2.9694200454838506e-05
C	3.3085905322783384	-0.9498738041657392	-0.00011347579954516149
O	2.159715482278339	-3.098276914165739	2.0042004548385037e-06
C	2.8314447322783387	0.37415354583426086	9.544420045483851e-05
C	3.7279289022783386	1.4336532958342607	-2.1205799545161494e-05
C	5.099396742278339	1.1479981358342608	-1.2635799545161497e-05
C	5.566036802278338	-0.1670319241657392	1.8342004548385036e-06
C	4.663237132278338	-1.235434964165739	2.9344200454838505e-05
C	-4.663482597721662	1.235031425834261	-4.00557995451615e-05
C	-5.565950537721661	0.16632927583426083	3.44842004548385e-05
C	-5.098959617721661	-1.1485763541657392	-3.37157995451615e-05
C	-3.727421587721661	-1.433804774165739	1.3134200454838504e-05
H	-5.005125777721661	2.264940575834261	1.2564200454838503e-05
H	-6.633599507721661	0.35844302583426085	-1.4345799545161497e-05
H	-5.811241317721661	-1.9674588441657392	2.554200454838504e-06
H	-3.3852953477216614	-2.463700614165739	6.154200454838504e-06
H	-0.6832669077216611	-2.421694994165739	5.794200454838504e-06
H	5.004487892278339	-2.265472184165739	-8.715799545161497e-06
H	6.633621552278338	-0.3595160141657391	5.2042004548385036e-06
H	5.811900962278338	1.9666871858342607	3.3420045483850377e-07
H	3.386209812278339	2.463681805834261	9.924200454838502e-06
H	0.6833243722783388	2.422115055834261	-5.235799545161496e-06
C	-1.3505376674588705	-0.34419265815978606	5.0000102642002995
C	-0.9294201374588704	0.999887851840214	5.000028414200299
C	0.4091763625411293	1.371997071840214	4.9999907942003
C	1.3505983625411293	0.344603781840214	4.9999605342003
C	0.9293895525411294	-0.9994562181597859	5.0000309742003
C	-0.4091518974588706	-1.3715702981597861	5.0000029342003
C	-2.142266127458871	1.888417421840214	4.9999552742003
C	-3.3087289674588707	0.949897361840214	5.0000831842002995
O	-2.1602255474588707	3.098518891840214	5.0000079142002996
C	-2.8313066974588708	-0.374008718159786	4.9999403742003
C	2.142017722541129	-1.8881622481597862	5.0000296942002995
C	3.308590252541129	-0.949872588159786	4.999886524200299
O	2.1597152025411295	-3.0982756981597857	5.000002004200299
C	2.8314444525411293	0.374154761840214	5.0000954442003
C	3.7279286225411292	1.4336545118402138	4.9999787942003
C	5.099396462541129	1.1479993518402138	4.999987364200299
C	5.566036522541129	-0.16703070815978605	5.000001834200299
C	4.663236852541129	-1.235433748159786	5.000029344200299
C	-4.663482877458871	1.235032641840214	4.9999599442003
C	-5.56595081745887	0.16633049184021398	5.0000344842003
C	-5.098959897458871	-1.1485751381597862	4.999966284200299
C	-3.7274218674588706	-1.4338035581597859	5.0000131342003
H	-5.00512605745887	2.264941791840214	5.0000125642003
H	-6.633599787458871	0.358444241840214	4.9999856542003
H	-5.811241597458871	-1.9674576281597862	5.000002554200299
H	-3.385295627458871	-2.4636993981597857	5.0000061542003
H	-0.6832671874588705	-2.421693778159786	5.000005794200299
H	5.00448761254113	-2.2654709681597858	4.999991284200299
H	6.633621272541129	-0.35951479815978593	5.000005204200299
H	5.811900682541129	1.9666884018402138	5.000000334200299
H	3.3862095325411294	2.463683021840214	5.0000099242003
H	0.6833240925411294	2.4221162718402143	4.9999947642002995
