64
129a TS45.0
C	-1.350537387721661	-0.3441938741657392	1.0264200454838503e-05
C	-0.929419857721661	0.9998866358342609	2.8414200454838505e-05
C	0.4091766422783387	1.3719958558342609	-9.205799545161497e-06
C	1.3505986422783387	0.34460256583426085	-3.94657995451615e-05
C	0.9293898322783388	-0.9994574341657391	3.0974200454838504e-05
C	-0.4091516177216612	-1.3715715141657392	2.9342004548385037e-06
C	-2.1422658477216614	1.888416205834261	-4.47257995451615e-05
C	-3.3087286877216613	0.9498961458342609	8.318420045483851e-05
O	-2.1602252677216613	3.0985176758342607	7.914200454838503e-06
C	-2.8313064177216614	-0.37400993416573913	-5.9625799545161496e-05
C	2.1420180022783386	-1.8881634641657392	2.9694200454838506e-05
C	3.3085905322783384	-0.9498738041657392	-0.00011347579954516149
O	2.159715482278339	-3.098276914165739	2.0042004548385037e-06
C	2.8314447322783387	0.37415354583426086	9.544420045483851e-05
C	3.7279289022783386	1.4336532958342607	-2.1205799545161494e-05
C	5.099396742278339	1.1479981358342608	-1.2635799545161497e-05
C	5.566036802278338	-0.1670319241657392	1.8342004548385036e-06
C	4.663237132278338	-1.235434964165739	2.9344200454838505e-05
C	-4.663482597721662	1.235031425834261	-4.00557995451615e-05
C	-5.565950537721661	0.16632927583426083	3.44842004548385e-05
C	-5.098959617721661	-1.1485763541657392	-3.37157995451615e-05
C	-3.727421587721661	-1.433804774165739	1.3134200454838504e-05
H	-5.005125777721661	2.264940575834261	1.2564200454838503e-05
H	-6.633599507721661	0.35844302583426085	-1.4345799545161497e-05
H	-5.811241317721661	-1.9674588441657392	2.554200454838504e-06
H	-3.3852953477216614	-2.463700614165739	6.154200454838504e-06
H	-0.6832669077216611	-2.421694994165739	5.794200454838504e-06
H	5.004487892278339	-2.265472184165739	-8.715799545161497e-06
H	6.633621552278338	-0.3595160141657391	5.2042004548385036e-06
H	5.811900962278338	1.9666871858342607	3.3420045483850377e-07
H	3.386209812278339	2.463681805834261	9.924200454838502e-06
H	0.6833243722783388	2.422115055834261	-5.235799545161496e-06
C	-0.9671710279839941	-0.3787199309140438	6.313104841843456
C	-0.6332460782699705	0.9732135538973657	6.52443958193308
C	0.32620264018708683	1.3794706104837753	7.443525662483417
C	0.9672449350113103	0.37913093278400595	8.171672392753289
C	0.6331933720893709	-0.9727788597943298	7.960334709829443
C	-0.3261701761079065	-1.3790434891220513	7.041241278215371
C	-1.4704145747832094	1.8279078378653995	5.613875588041898
C	-2.322625467216545	0.861084765973204	4.8520060329610075
O	-1.4515287732595485	3.0346908534955492	5.524510097379807
C	-2.0184535495156073	-0.44721757050093025	5.272105775648469
C	1.4702551266319288	-1.827659607937875	8.870703872297732
C	2.3225485582451597	-0.8610644907075594	9.632654500676383
O	1.4511656035725262	-3.0344598470092516	8.959903292265698
C	2.0185294007744976	0.4473702576201339	9.212788518590784
C	2.6823580015759014	1.527824065012855	9.776858336757382
C	3.647883647741712	1.2787299726613963	10.760847801342258
C	3.944527472388366	-0.020989425000210043	11.172902328257017
C	3.276048062176715	-1.1104964522325989	10.604886468861809
C	-3.2762260369085516	1.1100902851032672	3.879739349033746
C	-3.9445110447082192	0.02029651621843737	3.3120093398315964
C	-3.6475568209107467	-1.279294807308975	3.7242446131895326
C	-2.6819971700322753	-1.527958900661106	4.7082835101746605
H	-3.4916970767608166	2.128635777340902	3.5738468291996104
H	-4.69690761898213	0.1840171493327905	2.547890914599609
H	-4.174347715376635	-2.1148834737056372	3.2745817528193646
H	-2.466215210726098	-2.546475579131402	5.014547656150626
H	-0.5481253001617069	-2.4338647595597043	6.914803444455723
H	3.4912270892221726	-2.129179057622323	10.910521043199601
H	4.69690080981136	-0.1850840892285169	11.93696687111569
H	4.174792672747149	2.11413460084152	11.210714460319094
H	2.466851364081181	2.5464852865397662	9.470889590305486
H	0.5481758571723505	2.4342888930828015	7.569991443327911
