64
129a TL90.0
C	-1.350537387721661	-0.3441938741657392	1.0264200454838503e-05
C	-0.929419857721661	0.9998866358342609	2.8414200454838505e-05
C	0.4091766422783387	1.3719958558342609	-9.205799545161497e-06
C	1.3505986422783387	0.34460256583426085	-3.94657995451615e-05
C	0.9293898322783388	-0.9994574341657391	3.0974200454838504e-05
C	-0.4091516177216612	-1.3715715141657392	2.9342004548385037e-06
C	-2.1422658477216614	1.888416205834261	-4.47257995451615e-05
C	-3.3087286877216613	0.9498961458342609	8.318420045483851e-05
O	-2.1602252677216613	3.0985176758342607	7.914200454838503e-06
C	-2.8313064177216614	-0.37400993416573913	-5.9625799545161496e-05
C	2.1420180022783386	-1.8881634641657392	2.9694200454838506e-05
C	3.3085905322783384	-0.9498738041657392	-0.00011347579954516149
O	2.159715482278339	-3.098276914165739	2.0042004548385037e-06
C	2.8314447322783387	0.37415354583426086	9.544420045483851e-05
C	3.7279289022783386	1.4336532958342607	-2.1205799545161494e-05
C	5.099396742278339	1.1479981358342608	-1.2635799545161497e-05
C	5.566036802278338	-0.1670319241657392	1.8342004548385036e-06
C	4.663237132278338	-1.235434964165739	2.9344200454838505e-05
C	-4.663482597721662	1.235031425834261	-4.00557995451615e-05
C	-5.565950537721661	0.16632927583426083	3.44842004548385e-05
C	-5.098959617721661	-1.1485763541657392	-3.37157995451615e-05
C	-3.727421587721661	-1.433804774165739	1.3134200454838504e-05
H	-5.005125777721661	2.264940575834261	1.2564200454838503e-05
H	-6.633599507721661	0.35844302583426085	-1.4345799545161497e-05
H	-5.811241317721661	-1.9674588441657392	2.554200454838504e-06
H	-3.3852953477216614	-2.463700614165739	6.154200454838504e-06
H	-0.6832669077216611	-2.421694994165739	5.794200454838504e-06
H	5.004487892278339	-2.265472184165739	-8.715799545161497e-06
H	6.633621552278338	-0.3595160141657391	5.2042004548385036e-06
H	5.811900962278338	1.9666871858342607	3.3420045483850377e-07
H	3.386209812278339	2.463681805834261	9.924200454838502e-06
H	0.6833243722783388	2.422115055834261	-5.235799545161496e-06
C	-1.3089210359564887	0.11787494863465858	-6.706009238356048
C	-1.0112730891266335	0.09104934301882134	-5.329572360618497
C	0.28331199795334	-0.02550847197377911	-4.838889580290095
C	1.3089486031856052	-0.11785108490273723	-5.777694539364012
C	1.0112003318560019	-0.09110539223001543	-7.154119177703176
C	-0.28332382421479224	0.025512860832431695	-7.6448018603917465
C	-2.2937344356956206	0.20662645304400806	-4.553418365738864
C	-3.3669761177091355	0.3031585271563523	-5.592788043543929
O	-2.419663971284024	0.2179153250637013	-3.3498061255764107
C	-2.77510536024298	0.24999563255313106	-6.86853177409543
C	2.293468051467368	-0.2065903422049286	-7.930468459927039
C	3.366840493549803	-0.30311887133378607	-6.891318413998458
O	2.4191365869465797	-0.21788075848248808	-9.134116128111868
C	2.775227217190922	-0.2500455441093649	-5.615429102644817
C	3.569853274387414	-0.32149566981184713	-4.479784831898325
C	4.95580542870516	-0.4463287506680493	-4.641266207072931
C	5.536173645208852	-0.4986135963496764	-5.9091368758298675
C	4.736086316016847	-0.4265821055247506	-7.054215052543619
C	-4.7362920951547665	0.4266084205378896	-5.4303251939897335
C	-5.536027859829246	0.49856102767798083	-6.575671518349726
C	-4.955315307381176	0.4463281743167498	-7.843386786175422
C	-3.569335086338009	0.32145413071613665	-8.004436845532332
H	-5.167202640750842	0.465365140223303	-4.435213672181038
H	-6.612245198880636	0.5955385569089977	-6.480101562741873
H	-5.588710462888258	0.503337895970933	-8.722860618939123
H	-3.1379506506406454	0.2826089058334641	-8.999491779963815
H	-0.46141622078097994	0.041549713312998414	-8.715280460418438
H	5.166617734802118	-0.46531929844352976	-8.049489328589164
H	6.612364444801948	-0.5955430913265634	-6.005081439103397
H	5.589434178716471	-0.5034089500940083	-3.7619650742017585
H	3.1388586936920735	-0.2827098046019155	-3.484561240476031
H	0.46143634321363325	-0.041555059528350195	-3.768412333104523
