80
134a_H_capped_F cofacial 5.0A
C	-2.435431838602576	1.4687188603535712	-0.00023778157644006813
C	-2.464599508602576	2.858179320353571	0.0002047284235599319
C	-1.2852439286025756	3.562436610353571	-0.00013999157644006813
C	-0.04985005860257585	2.8693616803535713	0.00021483842355993188
C	-0.030112278602576037	1.4374270603535713	-0.0002741115764400681
C	-1.2656705986025756	0.704331910353571	0.00022132842355993188
C	1.160472341397424	3.6053045703535713	-3.329157644006811e-05
C	2.3639408113974243	2.936794090353571	1.6988423559931886e-05
C	2.4006871013974243	1.5421472803535712	-2.6061576440068113e-05
C	1.237754411397424	0.7652813503535711	0.0001186284235599319
C	-1.341264348602576	5.047463050353571	-2.3491576440068112e-05
N	-0.10449919860257584	5.680317580353571	-7.921576440068114e-06
C	1.1575137313974242	5.089602540353571	-3.451157644006812e-05
O	2.162044561397424	5.770047850353571	2.6798423559931886e-05
O	-2.3749283786025757	5.6830300703535706	2.965842355993189e-05
H	-3.4159035786025758	3.3759969803535714	-3.5981576440068116e-05
F	-3.6556189486025756	0.8864967003535713	6.718423559931886e-06
H	3.282965911397424	3.510696440353571	-4.611576440068115e-06
H	3.366870791397424	1.0710513803535713	2.358423559931885e-06
H	-0.12124582860257593	6.693123730353571	-3.963157644006812e-05
C	-1.2377493486025761	-0.7652803396464289	-2.8231576440068114e-05
C	0.030116531397423874	-1.4374271796464284	-2.0931576440068113e-05
C	1.265675761397424	-0.7043323196464288	2.984235599318853e-07
C	-2.400683478602576	-1.5421434596464292	-1.5761576440068113e-05
C	-2.363940118602576	-2.936789629646429	-3.491576440068115e-06
C	-1.1604728486025762	-3.6053012096464285	3.6688423559931884e-05
C	0.04985194139742388	-2.8693618696464287	4.4384235599318855e-06
C	2.435435791397424	-1.4687215596464287	-4.3981576440068114e-05
C	2.464601451397424	-2.8581828696464284	4.095842355993188e-05
C	1.285244861397424	-3.5624394596464284	-1.3615764400681149e-06
C	1.341260371397424	-5.047466689646429	-4.4671576440068116e-05
N	0.10449254139742381	-5.680317839646428	-1.0451576440068115e-05
C	-1.1575183786025764	-5.0895985196464295	-4.367157644006812e-05
O	-2.1620514286025756	-5.770040969646429	4.8348423559931884e-05
O	2.374922721397424	-5.683036259646428	3.069842355993188e-05
H	-3.366865618602576	-1.0710453696464288	8.968423559931885e-06
H	-3.282965618602576	-3.510690629646429	-1.8631576440068115e-05
F	3.655623021397424	-0.8864995296464286	-2.8951576440068114e-05
H	3.415905481397424	-3.376001099646429	-1.2591576440068115e-05
H	0.12123406139742388	-6.693123829646428	-3.6361576440068116e-05
C	-2.4354252449919924	1.4687192756429543	4.999762218419195
C	-2.464592914991992	2.858179735642954	5.000204728419195
C	-1.2852373349919917	3.562437025642954	4.999860008419195
C	-0.04984346499199199	2.869362095642954	5.000214838419195
C	-0.030105684991992177	1.4374274756429544	4.999725888419196
C	-1.2656640049919916	0.7043323256429541	5.000221328419196
C	1.160478935008008	3.605304985642954	4.999966708419195
C	2.363947405008008	2.936794505642954	5.000016988419196
C	2.400693695008008	1.5421476956429543	4.9999739384191955
C	1.237761005008008	0.7652817656429542	5.000118628419195
C	-1.341257754991992	5.047463465642954	4.999976508419196
N	-0.10449260499199198	5.680317995642954	4.999992078419195
C	1.1575203250080082	5.089602955642954	4.999965488419195
O	2.1620511550080077	5.770048265642954	5.000026798419196
O	-2.374921784991992	5.683030485642954	5.000029658419195
H	-3.415896984991992	3.3759973956429543	4.999964018419195
F	-3.655612354991992	0.8864971156429544	5.000006718419195
H	3.282972505008008	3.510696855642954	4.999995388419196
H	3.366877385008008	1.0710517956429544	5.000002358419195
H	-0.12123923499199207	6.693124145642955	4.999960368419195
C	-1.2377427549919922	-0.7652799243570458	4.999971768419195
C	0.030123125008007734	-1.4374267643570453	4.999979068419195
C	1.265682355008008	-0.7043319043570457	5.000000298419195
C	-2.4006768849919924	-1.542143044357046	4.999984238419195
C	-2.3639335249919924	-2.936789214357046	4.999996508419195
C	-1.1604662549919922	-3.6053007943570456	5.000036688419195
C	0.04985853500800774	-2.869361454357046	5.000004438419196
C	2.435442385008008	-1.4687211443570456	4.999956018419195
C	2.4646080450080077	-2.8581824543570455	5.000040958419196
C	1.285251455008008	-3.5624390443570455	4.9999986384191955
C	1.341266965008008	-5.0474662743570455	4.999955328419196
N	0.10449913500800767	-5.680317424357044	4.999989548419196
C	-1.1575117849919925	-5.089598104357046	4.999956328419195
O	-2.162044834991992	-5.770040554357045	5.000048348419195
O	2.374929315008008	-5.683035844357045	5.000030698419195
H	-3.3668590249919923	-1.0710449543570457	5.000008968419196
H	-3.2829590249919924	-3.510690214357046	4.999981368419196
F	3.655629615008008	-0.8864991143570455	4.999971048419195
H	3.415912075008008	-3.376000684357046	4.999987408419195
H	0.12124065500800774	-6.693123414357045	4.999963638419195
