80
134a_H_capped_F PD long
C	-2.435431838602576	1.4687188603535712	-0.00023778157644006813
C	-2.464599508602576	2.858179320353571	0.0002047284235599319
C	-1.2852439286025756	3.562436610353571	-0.00013999157644006813
C	-0.04985005860257585	2.8693616803535713	0.00021483842355993188
C	-0.030112278602576037	1.4374270603535713	-0.0002741115764400681
C	-1.2656705986025756	0.704331910353571	0.00022132842355993188
C	1.160472341397424	3.6053045703535713	-3.329157644006811e-05
C	2.3639408113974243	2.936794090353571	1.6988423559931886e-05
C	2.4006871013974243	1.5421472803535712	-2.6061576440068113e-05
C	1.237754411397424	0.7652813503535711	0.0001186284235599319
C	-1.341264348602576	5.047463050353571	-2.3491576440068112e-05
N	-0.10449919860257584	5.680317580353571	-7.921576440068114e-06
C	1.1575137313974242	5.089602540353571	-3.451157644006812e-05
O	2.162044561397424	5.770047850353571	2.6798423559931886e-05
O	-2.3749283786025757	5.6830300703535706	2.965842355993189e-05
H	-3.4159035786025758	3.3759969803535714	-3.5981576440068116e-05
F	-3.6556189486025756	0.8864967003535713	6.718423559931886e-06
H	3.282965911397424	3.510696440353571	-4.611576440068115e-06
H	3.366870791397424	1.0710513803535713	2.358423559931885e-06
H	-0.12124582860257593	6.693123730353571	-3.963157644006812e-05
C	-1.2377493486025761	-0.7652803396464289	-2.8231576440068114e-05
C	0.030116531397423874	-1.4374271796464284	-2.0931576440068113e-05
C	1.265675761397424	-0.7043323196464288	2.984235599318853e-07
C	-2.400683478602576	-1.5421434596464292	-1.5761576440068113e-05
C	-2.363940118602576	-2.936789629646429	-3.491576440068115e-06
C	-1.1604728486025762	-3.6053012096464285	3.6688423559931884e-05
C	0.04985194139742388	-2.8693618696464287	4.4384235599318855e-06
C	2.435435791397424	-1.4687215596464287	-4.3981576440068114e-05
C	2.464601451397424	-2.8581828696464284	4.095842355993188e-05
C	1.285244861397424	-3.5624394596464284	-1.3615764400681149e-06
C	1.341260371397424	-5.047466689646429	-4.4671576440068116e-05
N	0.10449254139742381	-5.680317839646428	-1.0451576440068115e-05
C	-1.1575183786025764	-5.0895985196464295	-4.367157644006812e-05
O	-2.1620514286025756	-5.770040969646429	4.8348423559931884e-05
O	2.374922721397424	-5.683036259646428	3.069842355993188e-05
H	-3.366865618602576	-1.0710453696464288	8.968423559931885e-06
H	-3.282965618602576	-3.510690629646429	-1.8631576440068115e-05
F	3.655623021397424	-0.8864995296464286	-2.8951576440068114e-05
H	3.415905481397424	-3.376001099646429	-1.2591576440068115e-05
H	0.12123406139742388	-6.693123829646428	-3.6361576440068116e-05
C	-2.6238673824819254	5.359735497975153	3.4997621437411555
C	-2.653035052481925	6.749195957975153	3.5002046537411555
C	-1.473679472481925	7.453453247975153	3.4998599337411553
C	-0.23828560248192532	6.760378317975153	3.5002147637411554
C	-0.2185478224819255	5.328443697975153	3.499725813741155
C	-1.454106142481925	4.595348547975153	3.5002212537411554
C	0.9720367975180746	7.4963212079751536	3.4999666337411552
C	2.175505267518075	6.827810727975153	3.500016913741155
C	2.212251557518075	5.433163917975153	3.4999738637411553
C	1.0493188675180745	4.656297987975153	3.500118553741155
C	-1.5296998924819254	8.938479687975152	3.499976433741155
N	-0.2929347424819253	9.571334217975153	3.499992003741155
C	0.9690781875180747	8.980619177975152	3.499965413741155
O	1.9736090175180745	9.661064487975151	3.500026723741155
O	-2.563363922481925	9.574046707975151	3.5000295837411555
H	-3.604339122481925	7.267013617975153	3.499963943741155
F	-3.844054492481925	4.777513337975153	3.5000066437411554
H	3.094530367518075	7.4017130779751525	3.4999953137411555
H	3.1784352475180744	4.962068017975153	3.5000022837411553
H	-0.3096813724819254	10.584140367975154	3.499960293741155
C	-1.4261848924819256	3.1257362979751533	3.499971693741155
C	-0.1583190124819256	2.453589457975154	3.499978993741155
C	1.0772402175180746	3.1866843179751534	3.5000002237411554
C	-2.5891190224819254	2.348873177975153	3.4999841637411553
C	-2.5523756624819254	0.9542270079751533	3.4999964337411553
C	-1.3489083924819256	0.2857154279751536	3.5000366137411554
C	-0.13858360248192558	1.0216547679751535	3.500004363741155
C	2.247000247518075	2.4222950779751535	3.4999559437411554
C	2.2761659075180742	1.0328337679751538	3.500040883741155
C	1.0968093175180746	0.32857717797515373	3.4999985637411553
C	1.1528248275180746	-1.1564500520248466	3.499955253741155
N	-0.08394300248192567	-1.7893012020248453	3.4999894737411554
C	-1.345953922481926	-1.1985818820248473	3.4999562537411553
O	-2.350486972481925	-1.8790243320248465	3.500048273741155
O	2.186487177518075	-1.792019622024846	3.5000306237411554
H	-3.5553011624819253	2.8199712679751534	3.500008893741155
H	-3.4714011624819254	0.38032600797515304	3.4999812937411554
F	3.4671874775180744	3.0045171079751536	3.4999709737411555
H	3.2274699375180744	0.5150155379751532	3.499987333741155
H	-0.0672014824819256	-2.8021071920248457	3.4999635637411552
