80
134a_H_capped_F TL45.0
C	-2.435431838602576	1.4687188603535712	-0.00023778157644006813
C	-2.464599508602576	2.858179320353571	0.0002047284235599319
C	-1.2852439286025756	3.562436610353571	-0.00013999157644006813
C	-0.04985005860257585	2.8693616803535713	0.00021483842355993188
C	-0.030112278602576037	1.4374270603535713	-0.0002741115764400681
C	-1.2656705986025756	0.704331910353571	0.00022132842355993188
C	1.160472341397424	3.6053045703535713	-3.329157644006811e-05
C	2.3639408113974243	2.936794090353571	1.6988423559931886e-05
C	2.4006871013974243	1.5421472803535712	-2.6061576440068113e-05
C	1.237754411397424	0.7652813503535711	0.0001186284235599319
C	-1.341264348602576	5.047463050353571	-2.3491576440068112e-05
N	-0.10449919860257584	5.680317580353571	-7.921576440068114e-06
C	1.1575137313974242	5.089602540353571	-3.451157644006812e-05
O	2.162044561397424	5.770047850353571	2.6798423559931886e-05
O	-2.3749283786025757	5.6830300703535706	2.965842355993189e-05
H	-3.4159035786025758	3.3759969803535714	-3.5981576440068116e-05
F	-3.6556189486025756	0.8864967003535713	6.718423559931886e-06
H	3.282965911397424	3.510696440353571	-4.611576440068115e-06
H	3.366870791397424	1.0710513803535713	2.358423559931885e-06
H	-0.12124582860257593	6.693123730353571	-3.963157644006812e-05
C	-1.2377493486025761	-0.7652803396464289	-2.8231576440068114e-05
C	0.030116531397423874	-1.4374271796464284	-2.0931576440068113e-05
C	1.265675761397424	-0.7043323196464288	2.984235599318853e-07
C	-2.400683478602576	-1.5421434596464292	-1.5761576440068113e-05
C	-2.363940118602576	-2.936789629646429	-3.491576440068115e-06
C	-1.1604728486025762	-3.6053012096464285	3.6688423559931884e-05
C	0.04985194139742388	-2.8693618696464287	4.4384235599318855e-06
C	2.435435791397424	-1.4687215596464287	-4.3981576440068114e-05
C	2.464601451397424	-2.8581828696464284	4.095842355993188e-05
C	1.285244861397424	-3.5624394596464284	-1.3615764400681149e-06
C	1.341260371397424	-5.047466689646429	-4.4671576440068116e-05
N	0.10449254139742381	-5.680317839646428	-1.0451576440068115e-05
C	-1.1575183786025764	-5.0895985196464295	-4.367157644006812e-05
O	-2.1620514286025756	-5.770040969646429	4.8348423559931884e-05
O	2.374922721397424	-5.683036259646428	3.069842355993188e-05
H	-3.366865618602576	-1.0710453696464288	8.968423559931885e-06
H	-3.282965618602576	-3.510690629646429	-1.8631576440068115e-05
F	3.655623021397424	-0.8864995296464286	-2.8951576440068114e-05
H	3.415905481397424	-3.376001099646429	-1.2591576440068115e-05
H	0.12123406139742388	-6.693123829646428	-3.6361576440068116e-05
C	-1.7447249196370107	1.5021696184194222	7.023629434738883
C	-1.784719954967749	2.8911057135009948	6.997016662989489
C	-0.9601911072800219	3.578178889112083	6.139729859105514
C	-0.07573040078790247	2.8681084086507083	5.291154482382136
C	-0.04184149472345209	1.43685912195208	5.325847368632764
C	-0.905635650756919	0.7217683592648372	6.223921955544868
C	0.7703363397561347	3.586410545149556	4.410980964206209
C	1.6316377787052627	2.901329054931166	3.583898256306714
C	1.6773524263868573	1.5071165788495329	3.605618266686835
C	0.8653338138321796	0.7472452749614842	4.45364804799929
C	-1.0207749619589637	5.0629843238212295	6.128583283904167
N	-0.15434715226667164	5.677903566978624	5.2334463850864354
C	0.7472363824521058	5.069733077887504	4.36229962316909
O	1.4486493929204245	5.735498515108324	3.6295894598518754
O	-1.7613509051628087	5.712745480716907	6.836936640633539
H	-2.4655433858176767	3.4220226409088057	7.651020709418354
F	-2.5999517641081993	0.9376223357063856	7.905509640244509
H	2.273979689366467	3.461831750549237	2.9151646469785444
H	2.3678964171182337	1.0226715602655847	2.9393568379214403
H	-0.18055538847489622	6.690251495237498	5.210608946426965
C	-0.8652522786142905	-0.7472403552163016	6.254293058005598
C	0.041650244440920206	-1.4368685038550233	5.381821800871776
C	0.9058099618430465	-0.7217603712700676	4.484111922025799
C	-1.6773653343654376	-1.5071133532062724	7.102230266585786
C	-1.6316136982171394	-2.9013232560549134	7.123991441619468
C	-0.7703202264698983	-3.5864061740057522	6.296902477101546
C	0.07590072744684828	-2.8681002347709694	5.416880042557681
C	1.7445428729128567	-1.5021811200694066	3.6840494252757408
C	1.784909024471741	-2.8910999948196796	3.711036609191732
C	0.9601060937815472	-3.578185695230411	4.568050423865568
C	1.0207381769412216	-5.062989346467348	4.579252247063921
N	0.15434358816570543	-5.677903470959847	5.474426129943871
C	-0.7472808270065593	-5.06973077903366	6.345529033787384
O	-1.4485871554866983	-5.735488082181348	7.078349087901085
O	1.7614037381183787	-5.712748631844226	3.8709910414689785
H	-2.3678707202815996	-1.0226643500747266	7.768528108435679
H	-2.273981859790367	-3.461825853620735	7.79269930817965
F	2.5999531047491504	-0.9376250918023421	2.8023526548861755
H	2.4655246054161024	-3.422027556365443	3.05682453726932
H	0.18050750949559016	-6.690253137892829	5.497226428723562
