80
134a_H_capped_F TS45.0
C	-2.435431838602576	1.4687188603535712	-0.00023778157644006813
C	-2.464599508602576	2.858179320353571	0.0002047284235599319
C	-1.2852439286025756	3.562436610353571	-0.00013999157644006813
C	-0.04985005860257585	2.8693616803535713	0.00021483842355993188
C	-0.030112278602576037	1.4374270603535713	-0.0002741115764400681
C	-1.2656705986025756	0.704331910353571	0.00022132842355993188
C	1.160472341397424	3.6053045703535713	-3.329157644006811e-05
C	2.3639408113974243	2.936794090353571	1.6988423559931886e-05
C	2.4006871013974243	1.5421472803535712	-2.6061576440068113e-05
C	1.237754411397424	0.7652813503535711	0.0001186284235599319
C	-1.341264348602576	5.047463050353571	-2.3491576440068112e-05
N	-0.10449919860257584	5.680317580353571	-7.921576440068114e-06
C	1.1575137313974242	5.089602540353571	-3.451157644006812e-05
O	2.162044561397424	5.770047850353571	2.6798423559931886e-05
O	-2.3749283786025757	5.6830300703535706	2.965842355993189e-05
H	-3.4159035786025758	3.3759969803535714	-3.5981576440068116e-05
F	-3.6556189486025756	0.8864967003535713	6.718423559931886e-06
H	3.282965911397424	3.510696440353571	-4.611576440068115e-06
H	3.366870791397424	1.0710513803535713	2.358423559931885e-06
H	-0.12124582860257593	6.693123730353571	-3.963157644006812e-05
C	-1.2377493486025761	-0.7652803396464289	-2.8231576440068114e-05
C	0.030116531397423874	-1.4374271796464284	-2.0931576440068113e-05
C	1.265675761397424	-0.7043323196464288	2.984235599318853e-07
C	-2.400683478602576	-1.5421434596464292	-1.5761576440068113e-05
C	-2.363940118602576	-2.936789629646429	-3.491576440068115e-06
C	-1.1604728486025762	-3.6053012096464285	3.6688423559931884e-05
C	0.04985194139742388	-2.8693618696464287	4.4384235599318855e-06
C	2.435435791397424	-1.4687215596464287	-4.3981576440068114e-05
C	2.464601451397424	-2.8581828696464284	4.095842355993188e-05
C	1.285244861397424	-3.5624394596464284	-1.3615764400681149e-06
C	1.341260371397424	-5.047466689646429	-4.4671576440068116e-05
N	0.10449254139742381	-5.680317839646428	-1.0451576440068115e-05
C	-1.1575183786025764	-5.0895985196464295	-4.367157644006812e-05
O	-2.1620514286025756	-5.770040969646429	4.8348423559931884e-05
O	2.374922721397424	-5.683036259646428	3.069842355993188e-05
H	-3.366865618602576	-1.0710453696464288	8.968423559931885e-06
H	-3.282965618602576	-3.510690629646429	-1.8631576440068115e-05
F	3.655623021397424	-0.8864995296464286	-2.8951576440068114e-05
H	3.415905481397424	-3.376001099646429	-1.2591576440068115e-05
H	0.12123406139742388	-6.693123829646428	-3.6361576440068116e-05
C	-2.4129809849965698	1.0049118322143438	-8.399973327666949
C	-2.422482156752634	1.9882607552012663	-9.382004865901573
C	-1.2339574220787368	2.5031758012885055	-9.839311638001526
C	-0.009229765600910832	2.0303572521183506	-9.307300561470809
C	-0.00975146574810401	1.01677919743994	-8.295625796593647
C	-1.2548536491311075	0.4807639860350248	-7.819767253943671
C	1.2106856310712888	2.5682055917798046	-9.78585870771569
C	2.4038677855541857	2.11210664781786	-9.272504325030198
C	2.420855329947215	1.1254762531939744	-8.286268093661134
C	1.2477216189430462	0.5592605298218359	-7.777259069858658
C	-1.268929476884762	3.553555287325563	-10.889988429038365
N	-0.024057230738698927	4.0189989718219445	-11.294646506896889
C	1.2287327387007858	3.6187372828161934	-10.834289289659566
O	2.2422016984169826	4.1146109724245274	-11.28047082639813
O	-2.2928932731853653	3.9888133052171595	-11.374194344304978
H	-3.3657986064051237	2.3411347489150027	-9.780437596639505
F	-3.64057897223138	0.5757236423208443	-8.030324891746478
H	3.330384810012638	2.53130139729459	-9.646420101150824
H	3.379709602349394	0.8057322003845576	-7.920475125418688
H	-0.026459524088735132	4.735595794097547	-12.010565476746741
C	-1.2477388357789347	-0.5591971065928804	-6.781032384459183
C	0.009746607513650805	-1.016988813652208	-6.262937434572191
C	1.25483202338989	-0.4806088814642238	-6.738430400414622
C	-2.4208694234270185	-1.1255042456562527	-6.272118888213688
C	-2.403886690198942	-2.1120951574062445	-5.2858440919349166
C	-1.2107054049871362	-2.568202030340214	-4.772496115166251
C	0.009204945602888806	-2.0302036980088665	-5.250899022160191
C	2.4129753362147657	-1.0051138993910964	-6.158578701182268
C	2.422456445809362	-1.9880909255961585	-5.176173667889552
C	1.2339439504977512	-2.503278848741886	-4.719141103339937
C	1.2689085840143264	-3.5536072708641147	-3.6684121691408875
N	0.02403200445903636	-4.019013435320851	-3.2637213633265834
C	-1.228753849983052	-3.618790931064591	-3.724123826743897
O	-2.242230232384177	-4.114554334048785	-3.2778359652143196
O	2.292866269335371	-3.9887763464263517	-3.184113632962611
H	-3.3797239339059573	-0.8057210821176577	-6.637875767464981
H	-3.3304028385824607	-2.5313149057145417	-4.911955262075869
F	3.6405645642628803	-0.5757424992268548	-6.528043525759018
H	3.3657829126334957	-2.3411731529721447	-4.777948609182184
H	0.0264311644765573	-4.735650912463839	-2.5478434247585175
