116
97a PD long
C	-3.3862877432226854	2.53743268181828	-5.20764687728354e-05
C	-2.363776193222685	3.51014636181828	3.3435312271646002e-06
C	-1.0916661432226853	2.81027916181828	2.69535312271646e-05
C	-2.7509264632226853	1.23192043181828	-4.22164687728354e-05
N	-1.3950546032226852	1.46788340181828	5.7893531227164596e-05
N	0.09545013677731484	3.37453407181828	5.72035312271646e-05
C	1.2437016367773146	2.69643407181828	-4.83864687728354e-05
C	2.539733376777315	3.38187624181828	2.98735312271646e-05
C	3.505285326777315	2.36520227181828	-2.1964687728353997e-06
C	2.754353876777315	1.10653543181828	-1.3306468772835398e-05
N	1.413027036777315	1.34462923181828	1.77735312271646e-05
N	-3.3742347132226853	0.07473080181827996	1.20835312271646e-05
C	-2.7551141832226853	-1.1063492581817198	-8.73364687728354e-05
C	-3.5054304832226855	-2.36593711818172	7.38335312271646e-05
C	-2.539003903222685	-3.38179712818172	-3.7156468772835404e-05
N	-1.4136512232226852	-1.3439643981817198	1.44035312271646e-05
C	-1.2438687232226853	-2.69567894818172	2.41135312271646e-05
N	-0.09580687322268533	-3.3739042081817203	2.70135312271646e-05
C	1.0910527867773148	-2.80939506818172	1.56935312271646e-05
N	1.3941436667773148	-1.4669599181817201	1.0983531227164601e-05
C	2.750024216777315	-1.2312786581817199	-2.99464687728354e-05
C	3.385415236777315	-2.5365897281817196	-4.80464687728354e-05
C	2.3629913367773145	-3.5092681981817195	2.70635312271646e-05
N	3.373533736777315	-0.07436092818171991	-5.7636468772835404e-05
C	-2.668582653222685	4.87192668181828	-5.596468772835399e-06
C	-4.008623913222685	5.23663113181828	-1.1376468772835398e-05
C	-5.028694643222686	4.26619865181828	-1.67164687728354e-05
C	-4.731176003222686	2.90965351181828	3.68435312271646e-05
C	2.906046226777315	4.7233956018182806	-5.9064687728354e-06
C	4.268133276777315	5.02269718181828	-1.3136468772835398e-05
C	5.234174696777314	4.00518690181828	1.4713531227164601e-05
C	4.864179946777315	2.6606838218182802	-3.1564687728353998e-06
C	-4.863824523222686	-2.6637630481817203	-2.49864687728354e-05
C	-5.231788303222685	-4.00890639818172	-1.45964687728354e-05
C	-4.264565093222686	-5.02528471818172	1.95535312271646e-05
C	-2.903003683222685	-4.72394157818172	-7.5564687728354e-06
C	2.6677608167773146	-4.87106226818172	-1.96764687728354e-05
C	4.007735806777315	-5.23568259818172	-1.2026468772835399e-05
C	5.027892646777315	-4.2650922781817195	1.1183531227164601e-05
C	4.730339546777315	-2.9086487281817197	4.33735312271646e-05
H	-0.6981899432226852	0.73583477181828	1.4333531227164601e-05
H	0.6972391767773147	-0.7349244881817198	-1.4586468772835398e-05
H	-1.8772893432226851	5.61263338181828	-3.3426468772835404e-05
H	-4.278709893222685	6.28758556181828	3.43435312271646e-05
H	-6.064894823222685	4.58829791181828	3.1635312271646003e-06
H	-5.510379703222686	2.15623324181828	1.80935312271646e-05
H	-5.606349323222686	-1.87366487818172	3.32835312271646e-05
H	-6.283385833222685	-4.27712049818172	-6.664687728353994e-07
H	-4.584434313222685	-6.062391438181719	-1.2164687728353997e-06
H	-2.150011903222685	-5.50408492818172	-1.9246468772835397e-05
H	1.8765250467773145	-5.61186452818172	-2.9356468772835397e-05
H	4.277158716777315	-6.2867645281817195	4.2583531227164595e-05
H	6.064268026777315	-4.58646388818172	-3.2286468772835405e-05
H	5.509548026777315	-2.1552103081817195	5.87035312271646e-05
H	5.605114136777315	1.86908366181828	2.58135312271646e-05
H	6.286193296777315	4.27195400181828	-2.6606468772835398e-05
H	4.589318176777315	6.0593383918182795	2.51035312271646e-05
H	2.1546626167773146	5.505063611818279	-2.74864687728354e-05
C	-6.405898654110476	5.61473820253408	3.4999477329658104
C	-5.383387104110476	6.58745188253408	3.50000315296581
C	-4.111277054110476	5.88758468253408	3.50002676296581
C	-5.770537374110476	4.30922595253408	3.4999575929658104
N	-4.414665514110475	4.545188922534081	3.5000577029658104
N	-2.924160774110476	6.45183959253408	3.50005701296581
C	-1.775909274110476	5.77373959253408	3.49995142296581
C	-0.47987753411047546	6.45918176253408	3.50002968296581
C	0.4856744158895246	5.44250779253408	3.49999761296581
C	-0.2652570341104758	4.18384095253408	3.49998650296581
N	-1.6065838741104757	4.42193475253408	3.50001758296581
N	-6.393845624110476	3.1520363225340806	3.5000118929658104
C	-5.774725094110476	1.9709562625340808	3.49991247296581
C	-6.525041394110477	0.7113684025340804	3.5000736429658104
C	-5.558614814110476	-0.30449160746591947	3.4999626529658103
N	-4.433262134110476	1.733341122534081	3.50001421296581
C	-4.2634796341104755	0.3816265725340808	3.50002392296581
N	-3.115417784110476	-0.2965986874659197	3.5000268229658102
C	-1.928558124110476	0.26791045253408047	3.50001550296581
N	-1.6254672441104758	1.6103456025340805	3.5000107929658104
C	-0.2695866941104756	1.8460268625340808	3.49996986296581
C	0.36580432588952455	0.540715792534081	3.4999517629658103
C	-0.656619574110476	-0.43196267746591893	3.5000268729658104
N	0.35392282588952423	3.0029445925340807	3.49994217296581
C	-5.688193564110476	7.9492322025340805	3.4999942129658104
C	-7.028234824110476	8.31393665253408	3.4999884329658104
C	-8.048305554110476	7.343504172534081	3.49998309296581
C	-7.750786914110477	5.98695903253408	3.50003665296581
C	-0.11356468411047552	7.800701122534081	3.49999390296581
C	1.248522365889524	8.10000270253408	3.49998667296581
C	2.2145637858895237	7.08249242253408	3.5000145229658104
C	1.8445690358895246	5.73798934253408	3.49999665296581
C	-7.883435434110477	0.41354247253408033	3.49997482296581
C	-8.251399214110474	-0.9316008774659196	3.49998521296581
C	-7.284176004110477	-1.9479791974659197	3.5000193629658103
C	-5.922614594110476	-1.6466360574659196	3.4999922529658103
C	-0.351850094110476	-1.793756747465919	3.4999801329658102
C	0.988124895889524	-2.1583770774659192	3.4999877829658104
C	2.008281735889524	-1.1877867574659189	3.50001099296581
C	1.7107286358895242	0.16865679253408086	3.5000431829658103
H	-3.717800854110476	3.8131402925340807	3.50001414296581
H	-2.322371734110476	2.342381032534081	3.4999852229658104
H	-4.896900254110476	8.68993890253408	3.4999663829658103
H	-7.2983208041104755	9.364891082534081	3.50003415296581
H	-9.084505734110476	7.6656034325340805	3.5000029729658104
H	-8.529990614110476	5.23353876253408	3.5000179029658103
H	-8.625960234110476	1.2036406425340807	3.5000330929658103
H	-9.302996744110475	-1.1998149774659193	3.49999914296581
H	-7.604045224110476	-2.9850859174659186	3.4999985929658104
H	-5.169622814110476	-2.426779407465919	3.4999805629658103
H	-1.1430858641104762	-2.5345590074659197	3.49997045296581
H	1.2575478058895242	-3.209459007465919	3.50004239296581
H	3.044657115889524	-1.5091583674659197	3.49996752296581
H	2.4899371158895245	0.922095212534081	3.5000585129658104
H	2.5855032258895245	4.94638918253408	3.5000256229658104
H	3.266582385889524	7.34925952253408	3.49997320296581
H	1.5697072658895244	9.13664391253408	3.5000249129658103
H	-0.8649482941104759	8.58236913253408	3.49997232296581
