116
97a TL45.0
C	-3.3862877432226854	2.53743268181828	-5.20764687728354e-05
C	-2.363776193222685	3.51014636181828	3.3435312271646002e-06
C	-1.0916661432226853	2.81027916181828	2.69535312271646e-05
C	-2.7509264632226853	1.23192043181828	-4.22164687728354e-05
N	-1.3950546032226852	1.46788340181828	5.7893531227164596e-05
N	0.09545013677731484	3.37453407181828	5.72035312271646e-05
C	1.2437016367773146	2.69643407181828	-4.83864687728354e-05
C	2.539733376777315	3.38187624181828	2.98735312271646e-05
C	3.505285326777315	2.36520227181828	-2.1964687728353997e-06
C	2.754353876777315	1.10653543181828	-1.3306468772835398e-05
N	1.413027036777315	1.34462923181828	1.77735312271646e-05
N	-3.3742347132226853	0.07473080181827996	1.20835312271646e-05
C	-2.7551141832226853	-1.1063492581817198	-8.73364687728354e-05
C	-3.5054304832226855	-2.36593711818172	7.38335312271646e-05
C	-2.539003903222685	-3.38179712818172	-3.7156468772835404e-05
N	-1.4136512232226852	-1.3439643981817198	1.44035312271646e-05
C	-1.2438687232226853	-2.69567894818172	2.41135312271646e-05
N	-0.09580687322268533	-3.3739042081817203	2.70135312271646e-05
C	1.0910527867773148	-2.80939506818172	1.56935312271646e-05
N	1.3941436667773148	-1.4669599181817201	1.0983531227164601e-05
C	2.750024216777315	-1.2312786581817199	-2.99464687728354e-05
C	3.385415236777315	-2.5365897281817196	-4.80464687728354e-05
C	2.3629913367773145	-3.5092681981817195	2.70635312271646e-05
N	3.373533736777315	-0.07436092818171991	-5.7636468772835404e-05
C	-2.668582653222685	4.87192668181828	-5.596468772835399e-06
C	-4.008623913222685	5.23663113181828	-1.1376468772835398e-05
C	-5.028694643222686	4.26619865181828	-1.67164687728354e-05
C	-4.731176003222686	2.90965351181828	3.68435312271646e-05
C	2.906046226777315	4.7233956018182806	-5.9064687728354e-06
C	4.268133276777315	5.02269718181828	-1.3136468772835398e-05
C	5.234174696777314	4.00518690181828	1.4713531227164601e-05
C	4.864179946777315	2.6606838218182802	-3.1564687728353998e-06
C	-4.863824523222686	-2.6637630481817203	-2.49864687728354e-05
C	-5.231788303222685	-4.00890639818172	-1.45964687728354e-05
C	-4.264565093222686	-5.02528471818172	1.95535312271646e-05
C	-2.903003683222685	-4.72394157818172	-7.5564687728354e-06
C	2.6677608167773146	-4.87106226818172	-1.96764687728354e-05
C	4.007735806777315	-5.23568259818172	-1.2026468772835399e-05
C	5.027892646777315	-4.2650922781817195	1.1183531227164601e-05
C	4.730339546777315	-2.9086487281817197	4.33735312271646e-05
H	-0.6981899432226852	0.73583477181828	1.4333531227164601e-05
H	0.6972391767773147	-0.7349244881817198	-1.4586468772835398e-05
H	-1.8772893432226851	5.61263338181828	-3.3426468772835404e-05
H	-4.278709893222685	6.28758556181828	3.43435312271646e-05
H	-6.064894823222685	4.58829791181828	3.1635312271646003e-06
H	-5.510379703222686	2.15623324181828	1.80935312271646e-05
H	-5.606349323222686	-1.87366487818172	3.32835312271646e-05
H	-6.283385833222685	-4.27712049818172	-6.664687728353994e-07
H	-4.584434313222685	-6.062391438181719	-1.2164687728353997e-06
H	-2.150011903222685	-5.50408492818172	-1.9246468772835397e-05
H	1.8765250467773145	-5.61186452818172	-2.9356468772835397e-05
H	4.277158716777315	-6.2867645281817195	4.2583531227164595e-05
H	6.064268026777315	-4.58646388818172	-3.2286468772835405e-05
H	5.509548026777315	-2.1552103081817195	5.87035312271646e-05
H	5.605114136777315	1.86908366181828	2.58135312271646e-05
H	6.286193296777315	4.27195400181828	-2.6606468772835398e-05
H	4.589318176777315	6.0593383918182795	2.51035312271646e-05
H	2.1546626167773146	5.505063611818279	-2.74864687728354e-05
C	-3.252551196625052	2.6686623871007384	8.31639771941083
C	-2.525013877877111	3.3519320911013306	7.318633349613071
C	-1.3402388189864434	2.566367279606522	7.023211508382579
C	-2.5208387116427433	1.4576949240911765	8.642282413702723
N	-1.4017865853191906	1.4612781196901747	7.841172849876946
N	-0.41286478417714734	2.8757496610360875	6.144639594286921
C	0.6632812795699187	2.1268960766728746	5.900858776605215
C	1.6655985776671791	2.5241304411545227	4.90733266258695
C	2.6359183780297775	1.5121349325957272	4.923491441438133
C	2.1813282477965177	0.5442535265656354	5.925835521180135
N	1.0053054160676447	0.9445521713660514	6.484921958586861
N	-2.8816746356121037	0.5580567192101339	9.530003965506937
C	-2.182054048230103	-0.5440325198594839	9.802383648155324
C	-2.635899012592363	-1.5127073676120073	10.80499520839961
C	-1.664994104699132	-2.524173010586216	10.820253638138079
N	-1.0059184581865075	-0.9438754283705444	9.24308537307625
C	-0.6635471403439285	-2.126236901541372	9.826833220663103
N	0.4125106690759344	-2.8751162512382393	9.583286869592051
C	1.3396081710121985	-2.565499179344722	8.704689172973955
N	1.4009102326518914	-1.4603197266967163	7.886877062400715
C	2.5199398162075455	-1.457048888287918	7.08580289816739
C	3.2516340349397495	-2.6678622775101895	7.411553178048682
C	2.524232011424746	-3.351050019559497	8.409348171138
N	2.881000219068612	-0.5576598096449324	6.198133237207163
C	-2.98373459626184	4.562683778127535	6.798048800317993
C	-4.177220659256322	5.071195769361904	7.293756866214028
C	-4.902990110555499	4.389546929497102	8.289194988420554
C	-4.451213755082804	3.1843674403285998	8.810896612337043
C	1.780807162769415	3.6192533057356355	4.058043435055751
C	2.895818823843164	3.6761117318475827	3.2223528926477956
C	3.866707751435867	2.6633580770765564	3.238721180974263
C	3.748776471768063	1.5661927144981838	4.0913084362804675
C	-3.7480383167800464	-1.568895411002135	11.638016056946755
C	-3.8641336720844106	-2.6668924324531518	12.489915337912826
C	-2.8924018611410567	-3.6788466799624002	12.5051310220476
C	-1.7781463646689184	-3.620172896513123	11.668680642360568
C	2.982895178980038	-4.561835641740865	8.929918822498875
C	4.176313487576514	-5.070264969543585	8.43420386582505
C	4.902142107873545	-4.388484725586074	7.43865674945027
C	4.4503945880834035	-3.183344717429912	6.9170834642858265
H	-0.7017418383575998	0.7323499555418898	7.85197269719805
H	0.7007986412664534	-0.73143127049012	7.8760549725939715
H	-2.418985068788026	5.081093998630242	6.031824072743508
H	-4.560862994182801	6.010722829142821	6.90962262482036
H	-5.8317224321639385	4.817099211923828	8.652669976984132
H	-5.003839643843052	2.6532770405658646	9.577283018821351
H	-4.495422099107172	-0.7835651258448246	11.62152286511127
H	-4.71953489466351	-2.7425885655331013	13.153507842829722
H	-3.01269778893683	-4.520121760862671	13.180180498023955
H	-1.0232915430140388	-4.398488133656728	11.674993905219004
H	2.4181896658015014	-5.080354694360144	9.696135311292268
H	4.559461000515504	-6.009754435682857	8.81880685246147
H	5.830905037637244	-4.815451239008295	7.074716289228274
H	5.003020159947854	-2.6522411690045944	6.150683238266456
H	4.495070944436936	0.7798523411598192	4.109409966166465
H	4.7226652590683145	2.737739890165501	2.5756134121274767
H	3.017311085911458	4.516804194543617	2.546882276599863
H	1.027080510293924	4.398622201245667	4.050139906777037
