116
97a PD long+short
C	-3.3862877432226854	2.53743268181828	-5.20764687728354e-05
C	-2.363776193222685	3.51014636181828	3.3435312271646002e-06
C	-1.0916661432226853	2.81027916181828	2.69535312271646e-05
C	-2.7509264632226853	1.23192043181828	-4.22164687728354e-05
N	-1.3950546032226852	1.46788340181828	5.7893531227164596e-05
N	0.09545013677731484	3.37453407181828	5.72035312271646e-05
C	1.2437016367773146	2.69643407181828	-4.83864687728354e-05
C	2.539733376777315	3.38187624181828	2.98735312271646e-05
C	3.505285326777315	2.36520227181828	-2.1964687728353997e-06
C	2.754353876777315	1.10653543181828	-1.3306468772835398e-05
N	1.413027036777315	1.34462923181828	1.77735312271646e-05
N	-3.3742347132226853	0.07473080181827996	1.20835312271646e-05
C	-2.7551141832226853	-1.1063492581817198	-8.73364687728354e-05
C	-3.5054304832226855	-2.36593711818172	7.38335312271646e-05
C	-2.539003903222685	-3.38179712818172	-3.7156468772835404e-05
N	-1.4136512232226852	-1.3439643981817198	1.44035312271646e-05
C	-1.2438687232226853	-2.69567894818172	2.41135312271646e-05
N	-0.09580687322268533	-3.3739042081817203	2.70135312271646e-05
C	1.0910527867773148	-2.80939506818172	1.56935312271646e-05
N	1.3941436667773148	-1.4669599181817201	1.0983531227164601e-05
C	2.750024216777315	-1.2312786581817199	-2.99464687728354e-05
C	3.385415236777315	-2.5365897281817196	-4.80464687728354e-05
C	2.3629913367773145	-3.5092681981817195	2.70635312271646e-05
N	3.373533736777315	-0.07436092818171991	-5.7636468772835404e-05
C	-2.668582653222685	4.87192668181828	-5.596468772835399e-06
C	-4.008623913222685	5.23663113181828	-1.1376468772835398e-05
C	-5.028694643222686	4.26619865181828	-1.67164687728354e-05
C	-4.731176003222686	2.90965351181828	3.68435312271646e-05
C	2.906046226777315	4.7233956018182806	-5.9064687728354e-06
C	4.268133276777315	5.02269718181828	-1.3136468772835398e-05
C	5.234174696777314	4.00518690181828	1.4713531227164601e-05
C	4.864179946777315	2.6606838218182802	-3.1564687728353998e-06
C	-4.863824523222686	-2.6637630481817203	-2.49864687728354e-05
C	-5.231788303222685	-4.00890639818172	-1.45964687728354e-05
C	-4.264565093222686	-5.02528471818172	1.95535312271646e-05
C	-2.903003683222685	-4.72394157818172	-7.5564687728354e-06
C	2.6677608167773146	-4.87106226818172	-1.96764687728354e-05
C	4.007735806777315	-5.23568259818172	-1.2026468772835399e-05
C	5.027892646777315	-4.2650922781817195	1.1183531227164601e-05
C	4.730339546777315	-2.9086487281817197	4.33735312271646e-05
H	-0.6981899432226852	0.73583477181828	1.4333531227164601e-05
H	0.6972391767773147	-0.7349244881817198	-1.4586468772835398e-05
H	-1.8772893432226851	5.61263338181828	-3.3426468772835404e-05
H	-4.278709893222685	6.28758556181828	3.43435312271646e-05
H	-6.064894823222685	4.58829791181828	3.1635312271646003e-06
H	-5.510379703222686	2.15623324181828	1.80935312271646e-05
H	-5.606349323222686	-1.87366487818172	3.32835312271646e-05
H	-6.283385833222685	-4.27712049818172	-6.664687728353994e-07
H	-4.584434313222685	-6.062391438181719	-1.2164687728353997e-06
H	-2.150011903222685	-5.50408492818172	-1.9246468772835397e-05
H	1.8765250467773145	-5.61186452818172	-2.9356468772835397e-05
H	4.277158716777315	-6.2867645281817195	4.2583531227164595e-05
H	6.064268026777315	-4.58646388818172	-3.2286468772835405e-05
H	5.509548026777315	-2.1552103081817195	5.87035312271646e-05
H	5.605114136777315	1.86908366181828	2.58135312271646e-05
H	6.286193296777315	4.27195400181828	-2.6606468772835398e-05
H	4.589318176777315	6.0593383918182795	2.51035312271646e-05
H	2.1546626167773146	5.505063611818279	-2.74864687728354e-05
C	-9.481594239804856	2.596707219088512	3.499947578084722
C	-8.459082689804855	3.569420899088512	3.5000029980847223
C	-7.186972639804856	2.869553699088512	3.500026608084722
C	-8.846232959804855	1.291194969088512	3.499957438084722
N	-7.490361099804856	1.5271579390885122	3.500057548084722
N	-5.999856359804856	3.433808609088512	3.5000568580847222
C	-4.851604859804856	2.7557086090885123	3.4999512680847222
C	-3.5555731198048557	3.4411507790885123	3.5000295280847222
C	-2.5900211698048556	2.424476809088512	3.499997458084722
C	-3.340952619804856	1.1658099690885122	3.499986348084722
N	-4.682279459804856	1.403903769088512	3.500017428084722
N	-9.469541209804856	0.134005339088512	3.500011738084722
C	-8.850420679804856	-1.0470747209114877	3.4999123180847223
C	-9.600736979804855	-2.306662580911488	3.5000734880847224
C	-8.634310399804855	-3.322522590911488	3.4999624980847224
N	-7.508957719804856	-1.2846898609114876	3.500014058084722
C	-7.339175219804856	-2.6364044109114877	3.500023768084722
N	-6.191113369804856	-3.314629670911488	3.5000266680847223
C	-5.004253709804856	-2.750120530911488	3.5000153480847223
N	-4.701162829804856	-1.407685380911488	3.500010638084722
C	-3.345282279804856	-1.1720041209114878	3.499969708084722
C	-2.7098912598048557	-2.4773151909114874	3.4999516080847224
C	-3.7323151598048563	-3.4499936609114874	3.500026718084722
N	-2.721772759804856	-0.01508639091148785	3.499942018084722
C	-8.763889149804855	4.931201219088512	3.4999940580847224
C	-10.103930409804855	5.295905669088512	3.499988278084722
C	-11.124001139804855	4.3254731890885125	3.499982938084722
C	-10.826482499804856	2.968928049088512	3.500036498084722
C	-3.1892602698048558	4.782670139088513	3.499993748084722
C	-1.8271732198048563	5.0819717190885125	3.499986518084722
C	-0.8611317998048563	4.064461439088512	3.500014368084722
C	-1.2311265498048556	2.7199583590885124	3.4999964980847222
C	-10.959131019804856	-2.604488510911488	3.499974668084722
C	-11.327094799804854	-3.949631860911488	3.499985058084722
C	-10.359871589804856	-4.966010180911488	3.5000192080847223
C	-8.998310179804855	-4.664667040911488	3.4999920980847223
C	-3.4275456798048562	-4.811787730911488	3.4999799780847223
C	-2.0875706898048563	-5.176408060911488	3.4999876280847224
C	-1.067413849804856	-4.205817740911487	3.500010838084722
C	-1.364966949804856	-2.8493741909114876	3.5000430280847223
H	-6.793496439804856	0.7951093090885121	3.500013988084722
H	-5.3980673198048565	-0.6756499509114878	3.499985068084722
H	-7.972595839804856	5.671907919088512	3.4999662280847224
H	-10.374016389804854	6.346860099088512	3.500033998084722
H	-12.160201319804855	4.647572449088512	3.500002818084722
H	-11.605686199804856	2.215507779088512	3.5000177480847223
H	-11.701655819804856	-1.8143903409114879	3.5000329380847224
H	-12.378692329804855	-4.217845960911488	3.499998988084722
H	-10.679740809804855	-6.003116900911487	3.499998438084722
H	-8.245318399804855	-5.4448103909114876	3.4999804080847223
H	-4.218781449804856	-5.552589990911488	3.499970298084722
H	-1.818147779804856	-6.227489990911487	3.5000422380847223
H	-0.03103846980485595	-4.527189350911488	3.499967368084722
H	-0.5857584698048556	-2.0959357709114874	3.500058358084722
H	-0.4901923598048556	1.9283581990885121	3.500025468084722
H	0.1908868001951439	4.331228539088512	3.499973048084722
H	-1.5059883198048558	6.118612929088512	3.5000247580847224
H	-3.940643879804856	5.5643381490885115	3.4999721680847222
