116
97a cofacial 3.5A
C	-3.3862877432226854	2.53743268181828	-5.20764687728354e-05
C	-2.363776193222685	3.51014636181828	3.3435312271646002e-06
C	-1.0916661432226853	2.81027916181828	2.69535312271646e-05
C	-2.7509264632226853	1.23192043181828	-4.22164687728354e-05
N	-1.3950546032226852	1.46788340181828	5.7893531227164596e-05
N	0.09545013677731484	3.37453407181828	5.72035312271646e-05
C	1.2437016367773146	2.69643407181828	-4.83864687728354e-05
C	2.539733376777315	3.38187624181828	2.98735312271646e-05
C	3.505285326777315	2.36520227181828	-2.1964687728353997e-06
C	2.754353876777315	1.10653543181828	-1.3306468772835398e-05
N	1.413027036777315	1.34462923181828	1.77735312271646e-05
N	-3.3742347132226853	0.07473080181827996	1.20835312271646e-05
C	-2.7551141832226853	-1.1063492581817198	-8.73364687728354e-05
C	-3.5054304832226855	-2.36593711818172	7.38335312271646e-05
C	-2.539003903222685	-3.38179712818172	-3.7156468772835404e-05
N	-1.4136512232226852	-1.3439643981817198	1.44035312271646e-05
C	-1.2438687232226853	-2.69567894818172	2.41135312271646e-05
N	-0.09580687322268533	-3.3739042081817203	2.70135312271646e-05
C	1.0910527867773148	-2.80939506818172	1.56935312271646e-05
N	1.3941436667773148	-1.4669599181817201	1.0983531227164601e-05
C	2.750024216777315	-1.2312786581817199	-2.99464687728354e-05
C	3.385415236777315	-2.5365897281817196	-4.80464687728354e-05
C	2.3629913367773145	-3.5092681981817195	2.70635312271646e-05
N	3.373533736777315	-0.07436092818171991	-5.7636468772835404e-05
C	-2.668582653222685	4.87192668181828	-5.596468772835399e-06
C	-4.008623913222685	5.23663113181828	-1.1376468772835398e-05
C	-5.028694643222686	4.26619865181828	-1.67164687728354e-05
C	-4.731176003222686	2.90965351181828	3.68435312271646e-05
C	2.906046226777315	4.7233956018182806	-5.9064687728354e-06
C	4.268133276777315	5.02269718181828	-1.3136468772835398e-05
C	5.234174696777314	4.00518690181828	1.4713531227164601e-05
C	4.864179946777315	2.6606838218182802	-3.1564687728353998e-06
C	-4.863824523222686	-2.6637630481817203	-2.49864687728354e-05
C	-5.231788303222685	-4.00890639818172	-1.45964687728354e-05
C	-4.264565093222686	-5.02528471818172	1.95535312271646e-05
C	-2.903003683222685	-4.72394157818172	-7.5564687728354e-06
C	2.6677608167773146	-4.87106226818172	-1.96764687728354e-05
C	4.007735806777315	-5.23568259818172	-1.2026468772835399e-05
C	5.027892646777315	-4.2650922781817195	1.1183531227164601e-05
C	4.730339546777315	-2.9086487281817197	4.33735312271646e-05
H	-0.6981899432226852	0.73583477181828	1.4333531227164601e-05
H	0.6972391767773147	-0.7349244881817198	-1.4586468772835398e-05
H	-1.8772893432226851	5.61263338181828	-3.3426468772835404e-05
H	-4.278709893222685	6.28758556181828	3.43435312271646e-05
H	-6.064894823222685	4.58829791181828	3.1635312271646003e-06
H	-5.510379703222686	2.15623324181828	1.80935312271646e-05
H	-5.606349323222686	-1.87366487818172	3.32835312271646e-05
H	-6.283385833222685	-4.27712049818172	-6.664687728353994e-07
H	-4.584434313222685	-6.062391438181719	-1.2164687728353997e-06
H	-2.150011903222685	-5.50408492818172	-1.9246468772835397e-05
H	1.8765250467773145	-5.61186452818172	-2.9356468772835397e-05
H	4.277158716777315	-6.2867645281817195	4.2583531227164595e-05
H	6.064268026777315	-4.58646388818172	-3.2286468772835405e-05
H	5.509548026777315	-2.1552103081817195	5.87035312271646e-05
H	5.605114136777315	1.86908366181828	2.58135312271646e-05
H	6.286193296777315	4.27195400181828	-2.6606468772835398e-05
H	4.589318176777315	6.0593383918182795	2.51035312271646e-05
H	2.1546626167773146	5.505063611818279	-2.74864687728354e-05
C	-3.3862879413653335	2.537432704131722	3.499947923531222
C	-2.363776391365333	3.510146384131722	3.5000033435312217
C	-1.0916663413653334	2.8102791841317223	3.5000269535312216
C	-2.7509266613653334	1.2319204541317221	3.499957783531222
N	-1.3950548013653332	1.4678834241317222	3.500057893531222
N	0.09544993863466686	3.374534094131722	3.5000572035312216
C	1.2437014386346665	2.6964340941317224	3.4999516135312216
C	2.539733178634667	3.3818762641317224	3.5000298735312216
C	3.505285128634667	2.365202294131722	3.499997803531222
C	2.7543536786346667	1.1065354541317223	3.499986693531222
N	1.413026838634667	1.3446292541317222	3.500017773531222
N	-3.3742349113653334	0.07473082413172208	3.500012083531222
C	-2.7551143813653334	-1.1063492358682776	3.4999126635312217
C	-3.5054306813653335	-2.365937095868278	3.500073833531222
C	-2.5390041013653333	-3.381797105868278	3.499962843531222
N	-1.4136514213653333	-1.3439643758682775	3.500014403531222
C	-1.2438689213653333	-2.6956789258682776	3.500024113531222
N	-0.09580707136533331	-3.373904185868278	3.5000270135312217
C	1.0910525886346667	-2.809395045868278	3.5000156935312217
N	1.3941434686346668	-1.466959895868278	3.500010983531222
C	2.750024018634667	-1.2312786358682777	3.499970053531222
C	3.385415038634667	-2.5365897058682774	3.499951953531222
C	2.3629911386346665	-3.5092681758682773	3.500027063531222
N	3.3735335386346668	-0.07436090586827779	3.499942363531222
C	-2.668582851365333	4.871926704131722	3.499994403531222
C	-4.008624111365333	5.236631154131722	3.499988623531222
C	-5.028694841365334	4.266198674131722	3.499983283531222
C	-4.731176201365334	2.909653534131722	3.500036843531222
C	2.906046028634667	4.723395624131722	3.499994093531222
C	4.2681330786346665	5.022697204131722	3.499986863531222
C	5.234174498634666	4.0051869241317215	3.500014713531222
C	4.864179748634667	2.6606838441317224	3.4999968435312216
C	-4.863824721365334	-2.663763025868278	3.499975013531222
C	-5.231788501365333	-4.008906375868278	3.499985403531222
C	-4.264565291365334	-5.025284695868279	3.5000195535312217
C	-2.903003881365333	-4.7239415558682785	3.4999924435312217
C	2.6677606186346665	-4.871062245868278	3.4999803235312217
C	4.0077356086346665	-5.235682575868278	3.499987973531222
C	5.027892448634667	-4.265092255868278	3.500011183531222
C	4.730339348634667	-2.9086487058682775	3.5000433735312217
H	-0.6981901413653332	0.7358347941317221	3.500014333531222
H	0.6972389786346668	-0.7349244658682778	3.499985413531222
H	-1.8772895413653332	5.612633404131722	3.4999665735312218
H	-4.278710091365333	6.287585584131722	3.500034343531222
H	-6.064895021365333	4.588297934131722	3.500003163531222
H	-5.510379901365334	2.156233264131722	3.5000180935312217
H	-5.606349521365334	-1.8736648558682778	3.500033283531222
H	-6.283386031365333	-4.277120475868278	3.499999333531222
H	-4.584434511365333	-6.0623914158682775	3.499998783531222
H	-2.1500121013653333	-5.504084905868278	3.4999807535312217
H	1.8765248486346664	-5.611864505868279	3.499970643531222
H	4.277158518634667	-6.286764505868278	3.5000425835312217
H	6.064267828634667	-4.586463865868279	3.499967713531222
H	5.509547828634667	-2.1552102858682773	3.500058703531222
H	5.605113938634667	1.8690836841317222	3.500025813531222
H	6.286193098634667	4.2719540241317215	3.499973393531222
H	4.589317978634667	6.059338414131721	3.5000251035312218
H	2.1546624186346666	5.505063634131721	3.4999725135312216
