56
105a cofacial 5.0A
N	0.02882601162992482	1.372518692422731	-2.6945561700223714e-06
C	1.127521641629925	0.5370104724227309	-7.745561700223712e-07
C	-1.1039015783700752	0.5839402524227311	1.1785443829977629e-05
C	-0.7216856383700752	-0.7571237075772692	7.185443829977629e-06
C	0.6890518216299248	-0.7867963375772691	-5.384556170022371e-06
C	2.548814381629925	0.6977142524227311	-9.594556170022371e-06
C	3.1763389816299252	-0.5773239175772691	8.575443829977629e-06
S	2.020943981629925	-1.9261825175772693	-5.045561700223712e-07
C	-2.5170406783700745	0.804664182422731	-4.214556170022371e-06
C	-3.197999848370075	-0.44266083757726893	-4.174556170022372e-06
S	-2.1006182883700752	-1.8391967075772686	7.754438299776288e-07
C	3.352152811629925	1.848858272422731	1.4054438299776287e-06
C	4.7336852216299246	1.723331812422731	-1.1145561700223713e-06
C	5.337831471629925	0.4583825224227309	6.015443829977629e-06
C	4.563560271629925	-0.6971018675772691	-8.714556170022371e-06
C	-3.2707465383700747	1.988866022422731	2.5354438299776285e-06
C	-4.656333378370075	1.9220540624227311	-4.4645561700223714e-06
C	-5.313543258370075	0.683877182422731	1.4954438299776287e-06
C	-4.589079908370075	-0.503483407577269	1.5354438299776287e-06
H	0.0496291816299248	2.377640302422731	5.415443829977629e-06
H	-2.773404968370075	2.954325572422731	-2.7345561700223715e-06
H	-5.237668968370075	2.838142212422731	-6.45561700223713e-08
H	-6.397756418370076	0.6483399124227309	-2.1845561700223713e-06
H	-5.100718628370075	-1.4603580175772688	2.8154438299776287e-06
H	2.8962738416299247	2.834563292422731	6.154438299776286e-07
H	5.353407811629925	2.613895302422731	2.6854438299776287e-06
H	6.419556491629925	0.3765902224227311	-4.1945561700223715e-06
H	5.034072661629925	-1.674850277577269	1.4854438299776286e-06
N	0.02882573416487831	1.3725195183584413	4.999997305443754
C	1.1275213641648785	0.5370112983584413	4.999999225443754
C	-1.1039018558351217	0.5839410783584414	5.000011785443754
C	-0.7216859158351216	-0.7571228816415588	5.000007185443755
C	0.6890515441648783	-0.7867955116415587	4.999994615443755
C	2.5488141041648786	0.6977150783584415	4.9999904054437545
C	3.1763387041648787	-0.5773230916415587	5.000008575443754
S	2.0209437041648783	-1.926181691641559	4.999999495443754
C	-2.517040955835121	0.8046650083584413	4.999995785443755
C	-3.1980001258351214	-0.4426600116415586	4.999995825443754
S	-2.1006185658351217	-1.8391958816415583	5.0000007754437545
C	3.3521525341648784	1.8488590983584412	5.000001405443754
C	4.733684944164878	1.7233326383584413	4.9999988854437545
C	5.337831194164878	0.45838334835844124	5.000006015443755
C	4.563559994164878	-0.6971010416415587	4.9999912854437545
C	-3.270746815835121	1.9888668483584413	5.0000025354437545
C	-4.656333655835121	1.9220548883584414	4.999995535443754
C	-5.313543535835121	0.6838780083584414	5.000001495443755
C	-4.589080185835122	-0.5034825816415586	5.000001535443754
H	0.04962890416487829	2.3776411283584413	5.000005415443755
H	-2.7734052458351215	2.9543263983584414	4.999997265443755
H	-5.2376692458351215	2.8381430383584414	4.999999935443754
H	-6.397756695835122	0.6483407383584413	4.999997815443755
H	-5.100718905835121	-1.4603571916415585	5.000002815443755
H	2.8962735641648782	2.8345641183584416	5.000000615443755
H	5.353407534164878	2.6138961283584417	5.0000026854437545
H	6.419556214164879	0.3765910483584414	4.9999958054437545
H	5.034072384164879	-1.6748494516415586	5.000001485443755
