56
105a TL45.0
N	0.02882601162992482	1.372518692422731	-2.6945561700223714e-06
C	1.127521641629925	0.5370104724227309	-7.745561700223712e-07
C	-1.1039015783700752	0.5839402524227311	1.1785443829977629e-05
C	-0.7216856383700752	-0.7571237075772692	7.185443829977629e-06
C	0.6890518216299248	-0.7867963375772691	-5.384556170022371e-06
C	2.548814381629925	0.6977142524227311	-9.594556170022371e-06
C	3.1763389816299252	-0.5773239175772691	8.575443829977629e-06
S	2.020943981629925	-1.9261825175772693	-5.045561700223712e-07
C	-2.5170406783700745	0.804664182422731	-4.214556170022371e-06
C	-3.197999848370075	-0.44266083757726893	-4.174556170022372e-06
S	-2.1006182883700752	-1.8391967075772686	7.754438299776288e-07
C	3.352152811629925	1.848858272422731	1.4054438299776287e-06
C	4.7336852216299246	1.723331812422731	-1.1145561700223713e-06
C	5.337831471629925	0.4583825224227309	6.015443829977629e-06
C	4.563560271629925	-0.6971018675772691	-8.714556170022371e-06
C	-3.2707465383700747	1.988866022422731	2.5354438299776285e-06
C	-4.656333378370075	1.9220540624227311	-4.4645561700223714e-06
C	-5.313543258370075	0.683877182422731	1.4954438299776287e-06
C	-4.589079908370075	-0.503483407577269	1.5354438299776287e-06
H	0.0496291816299248	2.377640302422731	5.415443829977629e-06
H	-2.773404968370075	2.954325572422731	-2.7345561700223715e-06
H	-5.237668968370075	2.838142212422731	-6.45561700223713e-08
H	-6.397756418370076	0.6483399124227309	-2.1845561700223713e-06
H	-5.100718628370075	-1.4603580175772688	2.8154438299776287e-06
H	2.8962738416299247	2.834563292422731	6.154438299776286e-07
H	5.353407811629925	2.613895302422731	2.6854438299776287e-06
H	6.419556491629925	0.3765902224227311	-4.1945561700223715e-06
H	5.034072661629925	-1.674850277577269	1.4854438299776286e-06
N	0.02032647350573395	0.970519623454425	-3.624271239177202
C	1.124050175397254	0.37281441528645654	-4.198508600452238
C	-1.1073716819119908	0.4198086437702415	-4.1986770508752205
C	-0.7169043461556298	-0.5310049766900542	-5.141030640817256
C	0.6938323398301157	-0.5607142136777665	-5.140929507551908
C	2.5441622502971137	0.477678556832915	-4.063660670167307
C	3.1794970915685346	-0.42797370598003565	-4.955654547512134
S	2.0326030485997157	-1.3747789484654283	-5.92650521363243
C	-2.521691897714395	0.5846716193606986	-4.063770802200251
C	-3.19484084721282	-0.2932684756628151	-4.955744332112637
S	-2.0889582580238337	-1.2877475755172807	-5.92661700313109
C	3.3402696499139997	1.2868304889641011	-3.2378451053943778
C	4.722398305145463	1.1895034889103064	-3.305937157026607
C	5.334295569810161	0.2911389796508629	-4.191155968231104
C	4.567278519018099	-0.5212599160221637	-5.019608106259355
C	-3.2826295685828293	1.426844458407275	-3.2378620351267684
C	-4.6676213822362635	1.388174311131107	-3.3058107293882406
C	-5.317080866680946	0.5165529310563065	-4.190957813455639
C	-4.58536242695473	-0.3276776828209353	-5.0195319572324415
H	0.03490497234899667	1.6812449756116357	-2.9133850570008297
H	-2.79132932664773	2.106578974993279	-2.547901283199425
H	-5.254551651093641	2.039661733177425	-2.666869757775933
H	-6.400932088342547	0.49813356011014315	-4.232289761950579
H	-5.091011029860971	-1.0012492858471902	-5.703640124880757
H	2.878348721665315	1.9867806709386122	-2.5478169751403943
H	5.3365270300018635	1.815504735610434	-2.6670883746626854
H	6.41638546930571	0.22660368097489686	-4.232817028851917
H	5.04378155896888	-1.2156801175877148	-5.703785933348485
