66
51f TS45.0
C	-5.9486685301899245	0.26073632803749347	1.348611486201367e-06
C	-5.778439270189924	1.6761778680374935	-7.813885137986327e-07
C	-4.526831050189925	2.2230024380374935	-4.141388513798633e-06
C	-3.3624056001899247	1.3946306180374934	9.978611486201367e-06
C	-3.534001530189925	-0.03926950196250656	-1.2421388513798632e-05
C	-4.8624008901899245	-0.5675489119625066	1.868611486201367e-06
C	-2.0712490201899247	1.9259929380374934	-1.1141388513798633e-05
C	-0.9350667301899246	1.1084557880374935	1.5278611486201367e-05
C	-1.1048549801899246	-0.3281178719625064	-1.9921388513798635e-05
C	-2.4025512701899245	-0.8573583819625066	1.1668611486201368e-05
C	0.38200311981007534	1.6510356680374936	-3.361388513798633e-06
C	1.4606947398100754	0.8117354880374935	6.028611486201367e-06
C	1.3117359898100753	-0.6199598519625065	-1.6661388513798636e-05
C	0.04848837981007539	-1.1602429019625067	1.4698611486201367e-05
S	3.1644488498100753	1.2995899880374935	2.308611486201367e-06
C	3.6839273598100752	-0.3954736719625065	-1.2391388513798632e-05
C	2.6018803098100753	-1.2981455119625065	1.9978611486201366e-05
C	5.003922669810075	-0.8397033219625065	8.828611486201368e-06
C	5.246103359810076	-2.2097823619625063	-5.8413885137986325e-06
C	4.184805469810075	-3.1220679719625064	2.3286114862013672e-06
C	2.8705212998100755	-2.6717806819625065	-1.1311388513798633e-05
H	-4.395351070189925	3.3011335780374935	-2.131388513798633e-06
H	-6.654083190189924	2.3173800880374937	1.148611486201367e-06
H	-6.9510437901899245	-0.15472451196250647	1.4086114862013672e-06
H	-4.992712610189924	-1.6457630219625066	6.186114862013672e-07
H	-2.5303804501899245	-1.9369792519625064	-1.913885137986328e-07
H	-0.08913880018992462	-2.2375392219625065	-1.3613885137986328e-06
H	2.0527293898100756	-3.385451641962507	-1.6013885137986328e-06
H	4.390341899810076	-4.187357641962507	-5.813885137986327e-07
H	6.269295919810076	-2.5709729619625064	-9.138851379863279e-08
H	5.828070219810075	-0.13436078196250656	1.5886114862013671e-06
H	0.5062649498100754	2.7292449380374935	-4.413885137986328e-07
H	-1.9444486101899245	3.0055741780374934	-6.813885137986327e-07
C	-4.280772764309329	-0.1318448432518763	3.366545955167716
C	-4.065325811338454	1.2729536135866493	3.2544002452991725
C	-3.1253404302214185	1.893126193425541	4.027286848392263
C	-2.338184151192704	1.1535538432127712	4.962970679696203
C	-2.5558073459962114	-0.26951264122533664	5.077148802744439
C	-3.5500690526226806	-0.8764394699249133	4.248410316716756
C	-1.3706235901339052	1.7610823520075778	5.765570767737733
C	-0.6031732112410834	1.030335220172536	6.680068298456055
C	-0.8196562183464555	-0.3952476937320365	6.795914726544543
C	-1.7918102077427578	-1.0011124972211616	5.988477025977688
C	0.3838402465028034	1.6506018948621215	7.498688847189878
C	1.1083448113270398	0.8946682476313065	8.377129431309026
C	0.9072207816287569	-0.5247487258028676	8.506531272482203
C	-0.04076581930562064	-1.1392361174181775	7.724593327843268
S	2.3711455693994568	1.486311837390374	9.470780284476852
C	2.6357462301141457	-0.14876012539384897	10.102939205071035
C	1.795001438003011	-1.1082283171819538	9.504431683250822
C	3.5603865187667667	-0.4999333610999102	11.083472374288446
C	3.6458728721922395	-1.833130580176476	11.472117869690017
C	2.8195076437920346	-2.800713302659054	10.889432336968847
C	1.8993840224361935	-2.4432012787651374	9.91185410612056
H	-2.9599254025551707	2.9632698950886494	3.9431199511256176
H	-4.656079874670684	1.8471000809180578	2.5478183093024027
H	-5.032108831262451	-0.6063938594197502	2.743921495976549
H	-3.7146459766586926	-1.946588431260913	4.3333953036282
H	-1.9546781302259568	-2.072486147484835	6.075391142704416
H	-0.21055788437646997	-2.2089616498810782	7.804383940412408
H	1.261920032086075	-3.1993167979355523	9.464597099490575
H	2.898420225068897	-3.836198971979492	11.203485737241076
H	4.36151345639655	-2.12193134691349	12.234898530019446
H	4.2018966220964105	0.2483973413940298	11.536454967759749
H	0.5440447704078691	2.7203511781828	7.409541701006425
H	-1.2085005601520016	2.832349554801129	5.677953981595549
