66
51f cofacial 3.5A
C	-5.9486685301899245	0.26073632803749347	1.348611486201367e-06
C	-5.778439270189924	1.6761778680374935	-7.813885137986327e-07
C	-4.526831050189925	2.2230024380374935	-4.141388513798633e-06
C	-3.3624056001899247	1.3946306180374934	9.978611486201367e-06
C	-3.534001530189925	-0.03926950196250656	-1.2421388513798632e-05
C	-4.8624008901899245	-0.5675489119625066	1.868611486201367e-06
C	-2.0712490201899247	1.9259929380374934	-1.1141388513798633e-05
C	-0.9350667301899246	1.1084557880374935	1.5278611486201367e-05
C	-1.1048549801899246	-0.3281178719625064	-1.9921388513798635e-05
C	-2.4025512701899245	-0.8573583819625066	1.1668611486201368e-05
C	0.38200311981007534	1.6510356680374936	-3.361388513798633e-06
C	1.4606947398100754	0.8117354880374935	6.028611486201367e-06
C	1.3117359898100753	-0.6199598519625065	-1.6661388513798636e-05
C	0.04848837981007539	-1.1602429019625067	1.4698611486201367e-05
S	3.1644488498100753	1.2995899880374935	2.308611486201367e-06
C	3.6839273598100752	-0.3954736719625065	-1.2391388513798632e-05
C	2.6018803098100753	-1.2981455119625065	1.9978611486201366e-05
C	5.003922669810075	-0.8397033219625065	8.828611486201368e-06
C	5.246103359810076	-2.2097823619625063	-5.8413885137986325e-06
C	4.184805469810075	-3.1220679719625064	2.3286114862013672e-06
C	2.8705212998100755	-2.6717806819625065	-1.1311388513798633e-05
H	-4.395351070189925	3.3011335780374935	-2.131388513798633e-06
H	-6.654083190189924	2.3173800880374937	1.148611486201367e-06
H	-6.9510437901899245	-0.15472451196250647	1.4086114862013672e-06
H	-4.992712610189924	-1.6457630219625066	6.186114862013672e-07
H	-2.5303804501899245	-1.9369792519625064	-1.913885137986328e-07
H	-0.08913880018992462	-2.2375392219625065	-1.3613885137986328e-06
H	2.0527293898100756	-3.385451641962507	-1.6013885137986328e-06
H	4.390341899810076	-4.187357641962507	-5.813885137986327e-07
H	6.269295919810076	-2.5709729619625064	-9.138851379863279e-08
H	5.828070219810075	-0.13436078196250656	1.5886114862013671e-06
H	0.5062649498100754	2.7292449380374935	-4.413885137986328e-07
H	-1.9444486101899245	3.0055741780374934	-6.813885137986327e-07
C	-5.948668302396616	0.26073563967773306	3.5000013486114105
C	-5.778439042396616	1.676177179677733	3.4999992186114106
C	-4.526830822396616	2.2230017496777332	3.4999958586114106
C	-3.362405372396616	1.394629929677733	3.5000099786114105
C	-3.534001302396616	-0.039270190322266973	3.4999875786114107
C	-4.862400662396616	-0.567549600322267	3.5000018686114105
C	-2.071248792396616	1.9259922496777329	3.4999888586114105
C	-0.935066502396616	1.108455099677733	3.5000152786114107
C	-1.1048547523966161	-0.32811856032226683	3.4999800786114106
C	-2.402551042396616	-0.857359070322267	3.500011668611411
C	0.3820033476033839	1.651034979677733	3.4999966386114107
C	1.4606949676033838	0.8117347996777331	3.5000060286114105
C	1.3117362176033838	-0.6199605403222669	3.4999833386114108
C	0.04848860760338393	-1.1602435903222672	3.5000146986114107
S	3.164449077603384	1.299589299677733	3.5000023086114105
C	3.683927587603384	-0.3954743603222669	3.4999876086114106
C	2.601880537603384	-1.298146200322267	3.5000199786114106
C	5.003922897603384	-0.8397040103222669	3.500008828611411
C	5.246103587603384	-2.2097830503222666	3.4999941586114107
C	4.184805697603384	-3.1220686603222667	3.500002328611411
C	2.870521527603384	-2.671781370322267	3.4999886886114107
H	-4.395350842396616	3.301132889677733	3.499997868611411
H	-6.654082962396616	2.3173793996777334	3.500001148611411
H	-6.951043562396616	-0.1547252003222669	3.5000014086114106
H	-4.992712382396616	-1.645763710322267	3.5000006186114105
H	-2.530380222396616	-1.936979940322267	3.4999998086114106
H	-0.08913857239661607	-2.237539910322267	3.4999986386114106
H	2.0527296176033842	-3.3854523303222672	3.4999983986114107
H	4.390342127603384	-4.187358330322267	3.4999994186114107
H	6.269296147603384	-2.5709736503222667	3.499999908611411
H	5.828070447603384	-0.13436147032226697	3.500001588611411
H	0.506265177603384	2.729244249677733	3.4999995586114108
H	-1.944448382396616	3.005573489677733	3.499999318611411
