66
51f PD long
C	-5.9486685301899245	0.26073632803749347	1.348611486201367e-06
C	-5.778439270189924	1.6761778680374935	-7.813885137986327e-07
C	-4.526831050189925	2.2230024380374935	-4.141388513798633e-06
C	-3.3624056001899247	1.3946306180374934	9.978611486201367e-06
C	-3.534001530189925	-0.03926950196250656	-1.2421388513798632e-05
C	-4.8624008901899245	-0.5675489119625066	1.868611486201367e-06
C	-2.0712490201899247	1.9259929380374934	-1.1141388513798633e-05
C	-0.9350667301899246	1.1084557880374935	1.5278611486201367e-05
C	-1.1048549801899246	-0.3281178719625064	-1.9921388513798635e-05
C	-2.4025512701899245	-0.8573583819625066	1.1668611486201368e-05
C	0.38200311981007534	1.6510356680374936	-3.361388513798633e-06
C	1.4606947398100754	0.8117354880374935	6.028611486201367e-06
C	1.3117359898100753	-0.6199598519625065	-1.6661388513798636e-05
C	0.04848837981007539	-1.1602429019625067	1.4698611486201367e-05
S	3.1644488498100753	1.2995899880374935	2.308611486201367e-06
C	3.6839273598100752	-0.3954736719625065	-1.2391388513798632e-05
C	2.6018803098100753	-1.2981455119625065	1.9978611486201366e-05
C	5.003922669810075	-0.8397033219625065	8.828611486201368e-06
C	5.246103359810076	-2.2097823619625063	-5.8413885137986325e-06
C	4.184805469810075	-3.1220679719625064	2.3286114862013672e-06
C	2.8705212998100755	-2.6717806819625065	-1.1311388513798633e-05
H	-4.395351070189925	3.3011335780374935	-2.131388513798633e-06
H	-6.654083190189924	2.3173800880374937	1.148611486201367e-06
H	-6.9510437901899245	-0.15472451196250647	1.4086114862013672e-06
H	-4.992712610189924	-1.6457630219625066	6.186114862013672e-07
H	-2.5303804501899245	-1.9369792519625064	-1.913885137986328e-07
H	-0.08913880018992462	-2.2375392219625065	-1.3613885137986328e-06
H	2.0527293898100756	-3.385451641962507	-1.6013885137986328e-06
H	4.390341899810076	-4.187357641962507	-5.813885137986327e-07
H	6.269295919810076	-2.5709729619625064	-9.138851379863279e-08
H	5.828070219810075	-0.13436078196250656	1.5886114862013671e-06
H	0.5062649498100754	2.7292449380374935	-4.413885137986328e-07
H	-1.9444486101899245	3.0055741780374934	-6.813885137986327e-07
C	-2.156509713094522	-0.6318427671342042	3.500000926256151
C	-1.986280453094522	0.7835987728657958	3.499998796256151
C	-0.7346722330945222	1.3304233428657957	3.499995436256151
C	0.42975321690547774	0.5020515228657958	3.500009556256151
C	0.2581572869054777	-0.9318485971342042	3.4999871562561506
C	-1.0702420730945221	-1.4601280071342042	3.500001446256151
C	1.7209097969054776	1.0334138428657955	3.499988436256151
C	2.857092086905478	0.2158766928657958	3.5000148562561506
C	2.6873038369054782	-1.2206969671342043	3.499979656256151
C	1.3896075469054778	-1.7499374771342044	3.500011246256151
C	4.174161936905478	0.7584565728657959	3.4999962162561506
C	5.252853556905478	-0.08084360713420413	3.500005606256151
C	5.103894806905478	-1.5125389471342043	3.4999829162561507
C	3.840647196905478	-2.0528219971342043	3.5000142762561506
S	6.9566076669054775	0.40701089286579584	3.500001886256151
C	7.476086176905478	-1.2880527671342044	3.499987186256151
C	6.394039126905478	-2.190724607134204	3.500019556256151
C	8.796081486905477	-1.7322824171342044	3.5000084062561507
C	9.038262176905477	-3.102361457134204	3.4999937362561506
C	7.976964286905478	-4.014647067134204	3.5000019062561507
C	6.662680116905478	-3.564359777134204	3.4999882662561506
H	-0.6031922530945223	2.408554482865796	3.4999974462561507
H	-2.8619243730945216	1.4248009928657959	3.5000007262561508
H	-3.158884973094522	-1.0473036071342043	3.500000986256151
H	-1.200553793094522	-2.538342117134204	3.500000196256151
H	1.2617783669054778	-2.829558347134204	3.499999386256151
H	3.703020016905478	-3.130118317134204	3.499998216256151
H	5.844888206905478	-4.278030737134205	3.4999979762561506
H	8.182500716905476	-5.079936737134204	3.4999989962561506
H	10.061454736905478	-3.463552057134204	3.4999994862561508
H	9.620229036905478	-1.0269398771342042	3.5000011662561508
H	4.298423766905478	1.8366658428657956	3.4999991362561507
H	1.8477102069054778	2.1129950828657957	3.499998896256151
