66
51f cofacial 4.5A
C	-5.9486685301899245	0.26073632803749347	1.348611486201367e-06
C	-5.778439270189924	1.6761778680374935	-7.813885137986327e-07
C	-4.526831050189925	2.2230024380374935	-4.141388513798633e-06
C	-3.3624056001899247	1.3946306180374934	9.978611486201367e-06
C	-3.534001530189925	-0.03926950196250656	-1.2421388513798632e-05
C	-4.8624008901899245	-0.5675489119625066	1.868611486201367e-06
C	-2.0712490201899247	1.9259929380374934	-1.1141388513798633e-05
C	-0.9350667301899246	1.1084557880374935	1.5278611486201367e-05
C	-1.1048549801899246	-0.3281178719625064	-1.9921388513798635e-05
C	-2.4025512701899245	-0.8573583819625066	1.1668611486201368e-05
C	0.38200311981007534	1.6510356680374936	-3.361388513798633e-06
C	1.4606947398100754	0.8117354880374935	6.028611486201367e-06
C	1.3117359898100753	-0.6199598519625065	-1.6661388513798636e-05
C	0.04848837981007539	-1.1602429019625067	1.4698611486201367e-05
S	3.1644488498100753	1.2995899880374935	2.308611486201367e-06
C	3.6839273598100752	-0.3954736719625065	-1.2391388513798632e-05
C	2.6018803098100753	-1.2981455119625065	1.9978611486201366e-05
C	5.003922669810075	-0.8397033219625065	8.828611486201368e-06
C	5.246103359810076	-2.2097823619625063	-5.8413885137986325e-06
C	4.184805469810075	-3.1220679719625064	2.3286114862013672e-06
C	2.8705212998100755	-2.6717806819625065	-1.1311388513798633e-05
H	-4.395351070189925	3.3011335780374935	-2.131388513798633e-06
H	-6.654083190189924	2.3173800880374937	1.148611486201367e-06
H	-6.9510437901899245	-0.15472451196250647	1.4086114862013672e-06
H	-4.992712610189924	-1.6457630219625066	6.186114862013672e-07
H	-2.5303804501899245	-1.9369792519625064	-1.913885137986328e-07
H	-0.08913880018992462	-2.2375392219625065	-1.3613885137986328e-06
H	2.0527293898100756	-3.385451641962507	-1.6013885137986328e-06
H	4.390341899810076	-4.187357641962507	-5.813885137986327e-07
H	6.269295919810076	-2.5709729619625064	-9.138851379863279e-08
H	5.828070219810075	-0.13436078196250656	1.5886114862013671e-06
H	0.5062649498100754	2.7292449380374935	-4.413885137986328e-07
H	-1.9444486101899245	3.0055741780374934	-6.813885137986327e-07
C	-5.9486682373128135	0.2607354430035158	4.50000134861139
C	-5.778438977312813	1.6761769830035158	4.499999218611389
C	-4.526830757312814	2.223001553003516	4.499995858611389
C	-3.3624053073128137	1.3946297330035158	4.50000997861139
C	-3.534001237312814	-0.03927038699648423	4.499987578611389
C	-4.8624005973128135	-0.5675497969964842	4.500001868611389
C	-2.0712487273128137	1.9259920530035157	4.499988858611389
C	-0.9350664373128136	1.1084549030035158	4.500015278611389
C	-1.1048546873128136	-0.3281187569964841	4.499980078611389
C	-2.4025509773128135	-0.8573592669964842	4.500011668611389
C	0.38200341268718635	1.651034783003516	4.499996638611389
C	1.4606950326871864	0.8117346030035159	4.50000602861139
C	1.3117362826871863	-0.6199607369964841	4.499983338611389
C	0.048488672687186374	-1.1602437869964843	4.500014698611389
S	3.1644491426871864	1.2995891030035158	4.500002308611389
C	3.6839276526871862	-0.39547455699648415	4.49998760861139
C	2.6018806026871864	-1.2981463969964842	4.500019978611389
C	5.003922962687186	-0.8397042069964842	4.5000088286113895
C	5.246103652687187	-2.209783246996484	4.499994158611389
C	4.184805762687186	-3.122068856996484	4.500002328611389
C	2.8705215926871865	-2.671781566996484	4.499988688611389
H	-4.395350777312814	3.301132693003516	4.4999978686113895
H	-6.654082897312813	2.317379203003516	4.500001148611389
H	-6.9510434973128135	-0.15472539699648416	4.500001408611389
H	-4.992712317312813	-1.6457639069964842	4.50000061861139
H	-2.5303801573128135	-1.936980136996484	4.499999808611389
H	-0.08913850731281364	-2.237540106996484	4.499998638611389
H	2.0527296826871866	-3.3854525269964846	4.499998398611389
H	4.390342192687187	-4.187358526996484	4.499999418611389
H	6.269296212687187	-2.570973846996484	4.4999999086113895
H	5.828070512687186	-0.13436166699648425	4.500001588611389
H	0.5062652426871864	2.729244053003516	4.499999558611389
H	-1.9444483173128135	3.0055732930035157	4.49999931861139
