66
51f TS90.0
C	-5.9486685301899245	0.26073632803749347	1.348611486201367e-06
C	-5.778439270189924	1.6761778680374935	-7.813885137986327e-07
C	-4.526831050189925	2.2230024380374935	-4.141388513798633e-06
C	-3.3624056001899247	1.3946306180374934	9.978611486201367e-06
C	-3.534001530189925	-0.03926950196250656	-1.2421388513798632e-05
C	-4.8624008901899245	-0.5675489119625066	1.868611486201367e-06
C	-2.0712490201899247	1.9259929380374934	-1.1141388513798633e-05
C	-0.9350667301899246	1.1084557880374935	1.5278611486201367e-05
C	-1.1048549801899246	-0.3281178719625064	-1.9921388513798635e-05
C	-2.4025512701899245	-0.8573583819625066	1.1668611486201368e-05
C	0.38200311981007534	1.6510356680374936	-3.361388513798633e-06
C	1.4606947398100754	0.8117354880374935	6.028611486201367e-06
C	1.3117359898100753	-0.6199598519625065	-1.6661388513798636e-05
C	0.04848837981007539	-1.1602429019625067	1.4698611486201367e-05
S	3.1644488498100753	1.2995899880374935	2.308611486201367e-06
C	3.6839273598100752	-0.3954736719625065	-1.2391388513798632e-05
C	2.6018803098100753	-1.2981455119625065	1.9978611486201366e-05
C	5.003922669810075	-0.8397033219625065	8.828611486201368e-06
C	5.246103359810076	-2.2097823619625063	-5.8413885137986325e-06
C	4.184805469810075	-3.1220679719625064	2.3286114862013672e-06
C	2.8705212998100755	-2.6717806819625065	-1.1311388513798633e-05
H	-4.395351070189925	3.3011335780374935	-2.131388513798633e-06
H	-6.654083190189924	2.3173800880374937	1.148611486201367e-06
H	-6.9510437901899245	-0.15472451196250647	1.4086114862013672e-06
H	-4.992712610189924	-1.6457630219625066	6.186114862013672e-07
H	-2.5303804501899245	-1.9369792519625064	-1.913885137986328e-07
H	-0.08913880018992462	-2.2375392219625065	-1.3613885137986328e-06
H	2.0527293898100756	-3.385451641962507	-1.6013885137986328e-06
H	4.390341899810076	-4.187357641962507	-5.813885137986327e-07
H	6.269295919810076	-2.5709729619625064	-9.138851379863279e-08
H	5.828070219810075	-0.13436078196250656	1.5886114862013671e-06
H	0.5062649498100754	2.7292449380374935	-4.413885137986328e-07
H	-1.9444486101899245	3.0055741780374934	-6.813885137986327e-07
C	-0.2541154186928908	-1.0796184578016736	4.027855479445008
C	0.0704934163915062	0.299486055974601	3.869259772096698
C	0.25814995165669635	1.0967377970996348	4.962289933063863
C	0.1345175257879451	0.5715420467786398	6.2855325215924225
C	-0.19425579369445517	-0.8253625126434754	6.447027023333402
C	-0.38181804241804934	-1.6221659680360967	5.274999442083418
C	0.3208189828464172	1.3629591671086105	7.420601655339632
C	0.19810835480490216	0.8417333973616418	8.71386999066495
C	-0.13115386569595114	-0.5573041452936335	8.877736631793741
C	-0.31733559908611086	-1.3481669169611317	7.7358156108623515
C	0.38826939882873535	1.6495589538709323	9.87159299894176
C	0.257703907191228	1.0948871474900703	11.113886137816026
C	-0.06938912575394389	-0.29487991212844505	11.2969105189573
C	-0.25622501801216574	-1.0885229081642573	10.191051828401028
S	0.45594385993863745	1.9371013960568935	12.660545816339942
C	0.10519514739062628	0.446867095040945	13.554568077104138
C	-0.15294967535920528	-0.6497303780518588	12.708118136065426
C	0.07539330380324369	0.32034537071585806	14.941230149926497
C	-0.21743378788157444	-0.923806442310757	15.490872418306035
C	-0.4766099238674801	-2.024891115872988	14.6668223483588
C	-0.44516469210546294	-1.891354306205212	13.284331610199093
H	0.5054939294363324	2.147597498353928	4.843258067084941
H	0.16752680555971242	0.7117447718212725	2.870000129078626
H	-0.3993890747884722	-1.6968192199364234	3.1473313994230683
H	-0.6291199383201193	-2.672843565597923	5.395187501552579
H	-0.5648105857674169	-2.39962620657199	7.85874248179708
H	-0.503691824019264	-2.139965773343833	10.303908743146321
H	-0.6472650282549939	-2.74994340613024	12.65180488434379
H	-0.7033980954370656	-2.9884225683414196	15.11096373397212
H	-0.24428134918439934	-1.0378442994540562	16.569601411144845
H	0.275967463745684	1.1724612297485018	15.581851607657594
H	0.6352510123073427	2.6988831075092934	9.745517087237543
H	0.5682324907107353	2.4141511509719407	7.296682459759337
