68
84w_H_capped TS90.0
C	-0.6666540237441905	0.08717236809964371	-8.193929662641018e-07
C	0.6669584062558096	-0.08481539190035631	-1.6793929662641018e-06
S	-1.4324039237441906	1.6961578680996436	-1.3193929662641018e-06
C	-3.0978245637441906	1.1101951480996437	-1.93493929662641e-05
C	-3.277749423744191	-0.2868483519003563	8.920607033735899e-06
S	-1.8150340537441907	-1.2754890819003564	1.5806070337358984e-06
S	1.8160839062558094	1.2772076880996437	4.260607033735898e-06
C	3.278310666255809	0.2876886380996437	-1.8239392966264102e-05
C	3.097494056255809	-1.1092397519003563	1.92406070337359e-05
S	1.4318224262558092	-1.6942303819003564	-8.593929662641018e-07
C	4.558158266255809	0.8501984980996437	1.5290607033735897e-05
C	5.630308916255809	-0.024281391900356275	-2.8949392966264103e-05
C	5.451263756255809	-1.4069018819003563	2.88906070337359e-05
C	4.191706856255809	-1.9792874719003564	-2.0259392966264103e-05
C	7.09626890625581	0.26651533809964373	2.42306070337359e-05
O	7.66204329625581	1.3299842380996436	-1.17993929662641e-05
N	7.70583654625581	-0.9960313119003563	-1.793929662641018e-07
C	6.79490043625581	-2.0614090419003563	-2.1759392966264102e-05
O	7.071447286255809	-3.2338726819003565	1.1230607033735899e-05
C	-4.192675953744191	1.9794672380996436	1.6900607033735897e-05
C	-5.45184851374419	1.4061735280996437	-2.74293929662641e-05
C	-5.629943123744191	0.023427038099643693	2.6890607033735898e-05
C	-4.557178363744191	-0.8502614019003563	-1.3009392966264101e-05
C	-6.795978963744191	2.0597025680996435	2.25706070337359e-05
N	-7.7061367537441905	0.9936520580996437	-7.393929662641019e-07
C	-7.0956893537441905	-0.2684451419003563	-2.1909392966264102e-05
O	-7.0734356137441905	3.2319484280996438	-5.459392966264102e-06
O	-7.660577463744191	-1.3323762519003564	7.080607033735898e-06
H	-4.06729124374419	3.0565357880996435	4.4060703373589816e-07
H	-4.709129943744191	-1.9239132519003563	-1.1293929662641017e-06
H	4.7109313162558095	1.9237338380996436	-1.2939296626410178e-07
H	4.06551701625581	-3.056261481900356	9.06070337358982e-08
H	-8.706879693744192	1.1232383780996438	3.0106070337358984e-06
H	8.70647064625581	-1.1264161419003562	2.0406070337358984e-06
C	0.00014383995295672074	0.0011111462960549854	10.976705659127212
C	0.0001630893995414477	0.0012535655926596537	12.321362448939121
S	0.19186782365981533	1.4865131174680746	10.011288574820973
C	0.09020317784487293	0.698712532996028	8.434579103615288
C	-0.09013729690673897	-0.6982773225964398	8.434970863187068
S	-0.1916756520284012	-1.4850159447400288	10.012208654254048
S	0.1919054803598891	1.486848457904733	13.286680508794683
C	0.09026264521203593	0.6991819351632282	14.863546144001013
C	-0.09008696254710398	-0.697806731999837	14.86303875487847
S	-0.19163025490053745	-1.4846832857644876	13.285955920816747
C	0.1826161811060946	1.414964599131448	16.060856974703576
C	0.08920787380492481	0.6909262945166837	17.236129503883394
C	-0.08931641414854785	-0.6917614257699013	17.235547428180865
C	-0.18257575295982356	-1.4146839345257374	16.059624559770004
C	0.1500958634407121	1.163079152325377	18.65280369538573
O	0.29441726303402166	2.2809460350792667	19.077788082165732
N	-0.0001799704137263541	-0.0013926159778685594	19.418975625399685
C	-0.15034260681824524	-1.1649652650153224	18.651913582545532
O	-0.29469580911368654	-2.283102291402055	19.076272972291296
C	0.18258625573775883	1.4147453257062086	7.237459251372138
C	0.08921314266746917	0.6909789897898345	6.062033809884072
C	-0.08930807449176323	-0.6917124370033566	6.062410593151848
C	-0.18261014299451644	-1.4148937394255514	7.238190865957762
C	0.15010770984953337	1.1631579661453297	4.645303157566522
N	-0.00012587070365235214	-0.000977846260973816	3.8790991542752415
C	-0.15033344090611045	-1.1648954227202086	4.6460860719771695
O	0.2944134357672797	2.2809659102800253	4.22006933106778
O	-0.2946920159554945	-2.283105322783221	4.222039841364983
H	0.32139831500722715	2.4900807744455893	7.223936231825319
H	-0.32141922808832624	-2.4902419238461317	7.224928212647249
H	0.32142744646404614	2.4903020213126297	16.074949254130633
H	-0.3213928610959688	-2.490028111723992	16.072336971160222
H	-7.652869694365433e-05	-0.0005662681952810822	2.8700011042950067
H	-0.00033839304427084094	-0.0026026729897788386	20.42806794855261
