68
84w_H_capped TL45.0
C	-0.6666540237441905	0.08717236809964371	-8.193929662641018e-07
C	0.6669584062558096	-0.08481539190035631	-1.6793929662641018e-06
S	-1.4324039237441906	1.6961578680996436	-1.3193929662641018e-06
C	-3.0978245637441906	1.1101951480996437	-1.93493929662641e-05
C	-3.277749423744191	-0.2868483519003563	8.920607033735899e-06
S	-1.8150340537441907	-1.2754890819003564	1.5806070337358984e-06
S	1.8160839062558094	1.2772076880996437	4.260607033735898e-06
C	3.278310666255809	0.2876886380996437	-1.8239392966264102e-05
C	3.097494056255809	-1.1092397519003563	1.92406070337359e-05
S	1.4318224262558092	-1.6942303819003564	-8.593929662641018e-07
C	4.558158266255809	0.8501984980996437	1.5290607033735897e-05
C	5.630308916255809	-0.024281391900356275	-2.8949392966264103e-05
C	5.451263756255809	-1.4069018819003563	2.88906070337359e-05
C	4.191706856255809	-1.9792874719003564	-2.0259392966264103e-05
C	7.09626890625581	0.26651533809964373	2.42306070337359e-05
O	7.66204329625581	1.3299842380996436	-1.17993929662641e-05
N	7.70583654625581	-0.9960313119003563	-1.793929662641018e-07
C	6.79490043625581	-2.0614090419003563	-2.1759392966264102e-05
O	7.071447286255809	-3.2338726819003565	1.1230607033735899e-05
C	-4.192675953744191	1.9794672380996436	1.6900607033735897e-05
C	-5.45184851374419	1.4061735280996437	-2.74293929662641e-05
C	-5.629943123744191	0.023427038099643693	2.6890607033735898e-05
C	-4.557178363744191	-0.8502614019003563	-1.3009392966264101e-05
C	-6.795978963744191	2.0597025680996435	2.25706070337359e-05
N	-7.7061367537441905	0.9936520580996437	-7.393929662641019e-07
C	-7.0956893537441905	-0.2684451419003563	-2.1909392966264102e-05
O	-7.0734356137441905	3.2319484280996438	-5.459392966264102e-06
O	-7.660577463744191	-1.3323762519003564	7.080607033735898e-06
H	-4.06729124374419	3.0565357880996435	4.4060703373589816e-07
H	-4.709129943744191	-1.9239132519003563	-1.1293929662641017e-06
H	4.7109313162558095	1.9237338380996436	-1.2939296626410178e-07
H	4.06551701625581	-3.056261481900356	9.06070337358982e-08
H	-8.706879693744192	1.1232383780996438	3.0106070337358984e-06
H	8.70647064625581	-1.1264161419003562	2.0406070337358984e-06
C	-0.6666958611572579	0.08684706724998816	-4.322504111725626
C	0.6669112799454744	-0.08518166901422192	-4.322403413174272
S	-1.4886004262696384	1.2607686389665747	-3.263453462386135
C	-3.124237238314855	0.905559128231434	-3.825144338454771
C	-3.2513521926277296	-0.08233430429514389	-4.821142255771044
S	-1.7588940069762757	-0.8405395719900125	-5.382070132440381
S	1.7598743006666688	0.8417169416569037	-3.2632116995972833
C	3.2518802538857776	0.08291519284241135	-3.8248104798969336
C	3.1238727155403625	-0.9048695914402913	-4.820801877807054
S	1.4879501584387447	-1.2593762804770643	-5.381835220107626
C	4.504665284307849	0.4357550671436051	-3.3144567656940005
C	5.6041915587463	-0.2266294130643283	-3.830703672189505
C	5.477413087651976	-1.2043084623766982	-4.816486349981815
C	4.245190013222063	-1.5649224835279658	-5.331940201441466
C	7.0522975715614615	-0.07415817099272656	-3.4940392557785556
O	7.575814796950377	0.6619190867287884	-2.6970532155422733
N	7.705889442113893	-0.9956226571829564	-4.324290795491184
C	6.838943305050701	-1.720183637704909	-5.153899188339192
O	7.1577578063082345	-2.565174389074364	-5.95107990332376
C	-4.246160925168044	1.565085869485546	-3.314610057137207
C	-5.4779681721977935	1.2038076801383508	-3.8306625659138516
C	-5.603795651569612	0.22600605311750835	-4.816450054320639
C	-4.503688037395565	-0.4358408680194308	-5.332083269210198
C	-6.8399533596113455	1.719005342263031	-3.4939808268072263
N	-7.706099738399695	0.9939376769372937	-4.323991805242579
C	-7.051649336305596	0.07275817112459156	-5.153846226290215
O	-7.159665645094836	2.5638714070504003	-2.6970316836470927
O	-7.574266710954644	-0.6636761559181036	-5.951081164155919
H	-4.161427189235015	2.327206900339216	-2.5479356050408892
H	-4.614987769889034	-1.1945384318095988	-6.098769615808205
H	4.616787196972875	1.1943416230613941	-2.5477802725405208
H	4.159651143964294	-2.326949000142489	-6.0986184808855
H	-8.706858575270942	1.1234008343228985	-4.323695817218915
H	8.706569113487184	-1.125654418376016	-4.325152400470641
