68
84w_H_capped PD short
C	-0.6666540237441905	0.08717236809964371	-8.193929662641018e-07
C	0.6669584062558096	-0.08481539190035631	-1.6793929662641018e-06
S	-1.4324039237441906	1.6961578680996436	-1.3193929662641018e-06
C	-3.0978245637441906	1.1101951480996437	-1.93493929662641e-05
C	-3.277749423744191	-0.2868483519003563	8.920607033735899e-06
S	-1.8150340537441907	-1.2754890819003564	1.5806070337358984e-06
S	1.8160839062558094	1.2772076880996437	4.260607033735898e-06
C	3.278310666255809	0.2876886380996437	-1.8239392966264102e-05
C	3.097494056255809	-1.1092397519003563	1.92406070337359e-05
S	1.4318224262558092	-1.6942303819003564	-8.593929662641018e-07
C	4.558158266255809	0.8501984980996437	1.5290607033735897e-05
C	5.630308916255809	-0.024281391900356275	-2.8949392966264103e-05
C	5.451263756255809	-1.4069018819003563	2.88906070337359e-05
C	4.191706856255809	-1.9792874719003564	-2.0259392966264103e-05
C	7.09626890625581	0.26651533809964373	2.42306070337359e-05
O	7.66204329625581	1.3299842380996436	-1.17993929662641e-05
N	7.70583654625581	-0.9960313119003563	-1.793929662641018e-07
C	6.79490043625581	-2.0614090419003563	-2.1759392966264102e-05
O	7.071447286255809	-3.2338726819003565	1.1230607033735899e-05
C	-4.192675953744191	1.9794672380996436	1.6900607033735897e-05
C	-5.45184851374419	1.4061735280996437	-2.74293929662641e-05
C	-5.629943123744191	0.023427038099643693	2.6890607033735898e-05
C	-4.557178363744191	-0.8502614019003563	-1.3009392966264101e-05
C	-6.795978963744191	2.0597025680996435	2.25706070337359e-05
N	-7.7061367537441905	0.9936520580996437	-7.393929662641019e-07
C	-7.0956893537441905	-0.2684451419003563	-2.1909392966264102e-05
O	-7.0734356137441905	3.2319484280996438	-5.459392966264102e-06
O	-7.660577463744191	-1.3323762519003564	7.080607033735898e-06
H	-4.06729124374419	3.0565357880996435	4.4060703373589816e-07
H	-4.709129943744191	-1.9239132519003563	-1.1293929662641017e-06
H	4.7109313162558095	1.9237338380996436	-1.2939296626410178e-07
H	4.06551701625581	-3.056261481900356	9.06070337358982e-08
H	-8.706879693744192	1.1232383780996438	3.0106070337358984e-06
H	8.70647064625581	-1.1264161419003562	2.0406070337358984e-06
C	-0.8977701801622479	-1.7034235806565217	3.4999998004057735
C	0.4358422498377522	-1.8754113406565216	3.4999989404057734
S	-1.663520080162248	-0.09443808065652162	3.4999993004057735
C	-3.328940720162248	-0.6804008006565215	3.4999812704057733
C	-3.508865580162248	-2.0774443006565213	3.5000095404057734
S	-2.046150210162248	-3.0660850306565215	3.500002200405773
S	1.584967749837752	-0.5133882606565215	3.5000048804057733
C	3.0471945098377518	-1.5029073106565216	3.4999823804057733
C	2.866377899837752	-2.8998357006565216	3.5000198604057733
S	1.2007062698377517	-3.4848263306565217	3.4999997604057733
C	4.327042109837752	-0.9403974506565216	3.5000159104057733
C	5.399192759837752	-1.8148773406565215	3.4999716704057735
C	5.220147599837752	-3.1974978306565216	3.5000295104057733
C	3.960590699837752	-3.7698834206565213	3.4999803604057735
C	6.865152749837753	-1.5240806106565217	3.500024850405773
O	7.4309271398377525	-0.4606117106565216	3.499988820405773
N	7.474720389837753	-2.7866272606565214	3.500000440405773
C	6.563784279837753	-3.8520049906565212	3.4999788604057733
O	6.840331129837752	-5.024468630656521	3.500011850405773
C	-4.423792110162248	0.18887128934347838	3.5000175204057733
C	-5.682964670162248	-0.38442242065652155	3.499973190405773
C	-5.861059280162248	-1.7671689106565216	3.5000275104057734
C	-4.788294520162248	-2.640857350656521	3.4999876104057734
C	-7.027095120162248	0.26910661934347824	3.5000231904057735
N	-7.937252910162248	-0.7969438906565215	3.4999998804057735
C	-7.326805510162248	-2.0590410906565215	3.4999787104057734
O	-7.304551770162248	1.4413524793434784	3.4999951604057733
O	-7.891693620162248	-3.1229722006565215	3.5000077004057735
H	-4.298407400162247	1.2659398393434782	3.5000010604057734
H	-4.940246100162248	-3.7145092006565212	3.499999490405773
H	4.479815159837752	0.13313788934347834	3.5000004904057733
H	3.8344008598377526	-4.846857430656521	3.5000007104057733
H	-8.937995850162249	-0.6673575706565215	3.5000036304057733
H	8.475354489837752	-2.917012090656521	3.5000026604057735
