68
84w_H_capped PD long
C	-0.6666540237441905	0.08717236809964371	-8.193929662641018e-07
C	0.6669584062558096	-0.08481539190035631	-1.6793929662641018e-06
S	-1.4324039237441906	1.6961578680996436	-1.3193929662641018e-06
C	-3.0978245637441906	1.1101951480996437	-1.93493929662641e-05
C	-3.277749423744191	-0.2868483519003563	8.920607033735899e-06
S	-1.8150340537441907	-1.2754890819003564	1.5806070337358984e-06
S	1.8160839062558094	1.2772076880996437	4.260607033735898e-06
C	3.278310666255809	0.2876886380996437	-1.8239392966264102e-05
C	3.097494056255809	-1.1092397519003563	1.92406070337359e-05
S	1.4318224262558092	-1.6942303819003564	-8.593929662641018e-07
C	4.558158266255809	0.8501984980996437	1.5290607033735897e-05
C	5.630308916255809	-0.024281391900356275	-2.8949392966264103e-05
C	5.451263756255809	-1.4069018819003563	2.88906070337359e-05
C	4.191706856255809	-1.9792874719003564	-2.0259392966264103e-05
C	7.09626890625581	0.26651533809964373	2.42306070337359e-05
O	7.66204329625581	1.3299842380996436	-1.17993929662641e-05
N	7.70583654625581	-0.9960313119003563	-1.793929662641018e-07
C	6.79490043625581	-2.0614090419003563	-2.1759392966264102e-05
O	7.071447286255809	-3.2338726819003565	1.1230607033735899e-05
C	-4.192675953744191	1.9794672380996436	1.6900607033735897e-05
C	-5.45184851374419	1.4061735280996437	-2.74293929662641e-05
C	-5.629943123744191	0.023427038099643693	2.6890607033735898e-05
C	-4.557178363744191	-0.8502614019003563	-1.3009392966264101e-05
C	-6.795978963744191	2.0597025680996435	2.25706070337359e-05
N	-7.7061367537441905	0.9936520580996437	-7.393929662641019e-07
C	-7.0956893537441905	-0.2684451419003563	-2.1909392966264102e-05
O	-7.0734356137441905	3.2319484280996438	-5.459392966264102e-06
O	-7.660577463744191	-1.3323762519003564	7.080607033735898e-06
H	-4.06729124374419	3.0565357880996435	4.4060703373589816e-07
H	-4.709129943744191	-1.9239132519003563	-1.1293929662641017e-06
H	4.7109313162558095	1.9237338380996436	-1.2939296626410178e-07
H	4.06551701625581	-3.056261481900356	9.06070337358982e-08
H	-8.706879693744192	1.1232383780996438	3.0106070337358984e-06
H	8.70647064625581	-1.1264161419003562	2.0406070337358984e-06
C	4.232224834894405	-0.5451351547698464	3.4999993504505715
C	5.565837264894404	-0.7171229147698465	3.4999984904505714
S	3.4664749348944044	1.0638503452301535	3.4999988504505715
C	1.801054294894404	0.4778876252301536	3.4999808204505714
C	1.6211294348944036	-0.9191558747698464	3.5000090904505714
S	3.083844804894404	-1.9077966047698467	3.5000017504505716
S	6.714962764894404	0.6449001652301536	3.5000044304505713
C	8.177189524894404	-0.3446188847698464	3.4999819304505717
C	7.996372914894404	-1.7415472747698464	3.5000194104505713
S	6.330701284894404	-2.3265379047698462	3.4999993104505713
C	9.457037124894404	0.21789097523015352	3.5000154604505713
C	10.529187774894403	-0.6565889147698464	3.4999712204505715
C	10.350142614894404	-2.039209404769846	3.5000290604505717
C	9.090585714894404	-2.6115949947698462	3.4999799104505716
C	11.995147764894405	-0.3657921847698464	3.5000244004505716
O	12.560922154894405	0.6976767152301535	3.4999883704505717
N	12.604715404894405	-1.6283388347698466	3.4999999904505716
C	11.693779294894405	-2.6937165647698462	3.4999784104505713
O	11.970326144894404	-3.8661802047698464	3.5000114004505716
C	0.706202904894404	1.3471597152301535	3.5000170704505713
C	-0.5529696551055957	0.7738660052301536	3.4999727404505716
C	-0.7310642651055962	-0.6088804847698465	3.5000270604505714
C	0.34170049489440385	-1.4825689247698464	3.4999871604505715
C	-1.8971001051055965	1.4273950452301534	3.5000227404505715
N	-2.8072578951055958	0.36134453523015364	3.4999994304505715
C	-2.196810495105596	-0.9007526647698464	3.4999782604505714
O	-2.1745567551055958	2.599640905230154	3.4999947104505713
O	-2.761698605105596	-1.9646837747698467	3.5000072504505715
H	0.8315876148944045	2.4242282652301537	3.5000006104505714
H	0.18974891489440346	-2.556220774769846	3.4999990404505716
H	9.609810174894404	1.2914263152301533	3.5000000404505713
H	8.964395874894404	-3.688569004769846	3.5000002604505713
H	-3.808000835105597	0.4909308552301537	3.5000031804505713
H	13.605349504894404	-1.7587236647698463	3.5000022104505715
