68
84w_H_capped PD long+short
C	-0.6666540237441905	0.08717236809964371	-8.193929662641018e-07
C	0.6669584062558096	-0.08481539190035631	-1.6793929662641018e-06
S	-1.4324039237441906	1.6961578680996436	-1.3193929662641018e-06
C	-3.0978245637441906	1.1101951480996437	-1.93493929662641e-05
C	-3.277749423744191	-0.2868483519003563	8.920607033735899e-06
S	-1.8150340537441907	-1.2754890819003564	1.5806070337358984e-06
S	1.8160839062558094	1.2772076880996437	4.260607033735898e-06
C	3.278310666255809	0.2876886380996437	-1.8239392966264102e-05
C	3.097494056255809	-1.1092397519003563	1.92406070337359e-05
S	1.4318224262558092	-1.6942303819003564	-8.593929662641018e-07
C	4.558158266255809	0.8501984980996437	1.5290607033735897e-05
C	5.630308916255809	-0.024281391900356275	-2.8949392966264103e-05
C	5.451263756255809	-1.4069018819003563	2.88906070337359e-05
C	4.191706856255809	-1.9792874719003564	-2.0259392966264103e-05
C	7.09626890625581	0.26651533809964373	2.42306070337359e-05
O	7.66204329625581	1.3299842380996436	-1.17993929662641e-05
N	7.70583654625581	-0.9960313119003563	-1.793929662641018e-07
C	6.79490043625581	-2.0614090419003563	-2.1759392966264102e-05
O	7.071447286255809	-3.2338726819003565	1.1230607033735899e-05
C	-4.192675953744191	1.9794672380996436	1.6900607033735897e-05
C	-5.45184851374419	1.4061735280996437	-2.74293929662641e-05
C	-5.629943123744191	0.023427038099643693	2.6890607033735898e-05
C	-4.557178363744191	-0.8502614019003563	-1.3009392966264101e-05
C	-6.795978963744191	2.0597025680996435	2.25706070337359e-05
N	-7.7061367537441905	0.9936520580996437	-7.393929662641019e-07
C	-7.0956893537441905	-0.2684451419003563	-2.1909392966264102e-05
O	-7.0734356137441905	3.2319484280996438	-5.459392966264102e-06
O	-7.660577463744191	-1.3323762519003564	7.080607033735898e-06
H	-4.06729124374419	3.0565357880996435	4.4060703373589816e-07
H	-4.709129943744191	-1.9239132519003563	-1.1293929662641017e-06
H	4.7109313162558095	1.9237338380996436	-1.2939296626410178e-07
H	4.06551701625581	-3.056261481900356	9.06070337358982e-08
H	-8.706879693744192	1.1232383780996438	3.0106070337358984e-06
H	8.70647064625581	-1.1264161419003562	2.0406070337358984e-06
C	4.001108644025008	-2.3357323105725256	3.4999999702495193
C	5.3347210740250075	-2.507720070572526	3.4999991102495196
S	3.2353587440250076	-0.726746810572526	3.499999470249519
C	1.569938104025007	-1.312709530572526	3.4999814402495195
C	1.3900132440250068	-2.709753030572526	3.5000097102495196
S	2.852728614025007	-3.698393760572526	3.5000023702495193
S	6.483846574025007	-1.145696990572526	3.5000050502495195
C	7.946073334025007	-2.135216040572526	3.4999825502495194
C	7.765256724025007	-3.532144430572526	3.5000200302495195
S	6.099585094025008	-4.117135060572526	3.4999999302495195
C	9.225920934025007	-1.5727061805725262	3.5000160802495195
C	10.298071584025006	-2.447186070572526	3.4999718402495192
C	10.119026424025007	-3.8298065605725258	3.5000296802495194
C	8.859469524025007	-4.402192150572526	3.4999805302495193
C	11.764031574025008	-2.1563893405725256	3.5000250202495193
O	12.329805964025008	-1.0929204405725261	3.4999889902495194
N	12.373599214025008	-3.4189359905725256	3.5000006102495194
C	11.462663104025008	-4.484313720572526	3.4999790302495195
O	11.739209954025007	-5.6567773605725264	3.5000120202495193
C	0.4750867140250071	-0.443437440572526	3.5000176902495195
C	-0.7840858459749925	-1.016731150572526	3.4999733602495193
C	-0.962180455974993	-2.3994776405725258	3.500027680249519
C	0.11058430402500703	-3.273166080572526	3.499987780249519
C	-2.128216295974993	-0.36320211057252616	3.500023360249519
N	-3.0383740859749926	-1.429252620572526	3.500000050249519
C	-2.4279266859749926	-2.6913498205725257	3.4999788802495195
O	-2.4056729459749926	0.8090437494274741	3.4999953302495195
O	-2.9928147959749927	-3.7552809305725257	3.500007870249519
H	0.6004714240250076	0.6336311094274739	3.5000012302495196
H	-0.04136727597499338	-4.346817930572525	3.4999996602495194
H	9.378693984025007	-0.49917084057252603	3.5000006602495195
H	8.733279684025007	-5.479166160572525	3.5000008802495195
H	-4.039117025974994	-1.299666300572526	3.5000038002495195
H	13.374233314025007	-3.5493208205725257	3.500002830249519
