68
84w_H_capped TS45.0
C	-0.6666540237441905	0.08717236809964371	-8.193929662641018e-07
C	0.6669584062558096	-0.08481539190035631	-1.6793929662641018e-06
S	-1.4324039237441906	1.6961578680996436	-1.3193929662641018e-06
C	-3.0978245637441906	1.1101951480996437	-1.93493929662641e-05
C	-3.277749423744191	-0.2868483519003563	8.920607033735899e-06
S	-1.8150340537441907	-1.2754890819003564	1.5806070337358984e-06
S	1.8160839062558094	1.2772076880996437	4.260607033735898e-06
C	3.278310666255809	0.2876886380996437	-1.8239392966264102e-05
C	3.097494056255809	-1.1092397519003563	1.92406070337359e-05
S	1.4318224262558092	-1.6942303819003564	-8.593929662641018e-07
C	4.558158266255809	0.8501984980996437	1.5290607033735897e-05
C	5.630308916255809	-0.024281391900356275	-2.8949392966264103e-05
C	5.451263756255809	-1.4069018819003563	2.88906070337359e-05
C	4.191706856255809	-1.9792874719003564	-2.0259392966264103e-05
C	7.09626890625581	0.26651533809964373	2.42306070337359e-05
O	7.66204329625581	1.3299842380996436	-1.17993929662641e-05
N	7.70583654625581	-0.9960313119003563	-1.793929662641018e-07
C	6.79490043625581	-2.0614090419003563	-2.1759392966264102e-05
O	7.071447286255809	-3.2338726819003565	1.1230607033735899e-05
C	-4.192675953744191	1.9794672380996436	1.6900607033735897e-05
C	-5.45184851374419	1.4061735280996437	-2.74293929662641e-05
C	-5.629943123744191	0.023427038099643693	2.6890607033735898e-05
C	-4.557178363744191	-0.8502614019003563	-1.3009392966264101e-05
C	-6.795978963744191	2.0597025680996435	2.25706070337359e-05
N	-7.7061367537441905	0.9936520580996437	-7.393929662641019e-07
C	-7.0956893537441905	-0.2684451419003563	-2.1909392966264102e-05
O	-7.0734356137441905	3.2319484280996438	-5.459392966264102e-06
O	-7.660577463744191	-1.3323762519003564	7.080607033735898e-06
H	-4.06729124374419	3.0565357880996435	4.4060703373589816e-07
H	-4.709129943744191	-1.9239132519003563	-1.1293929662641017e-06
H	4.7109313162558095	1.9237338380996436	-1.2939296626410178e-07
H	4.06551701625581	-3.056261481900356	9.06070337358982e-08
H	-8.706879693744192	1.1232383780996438	3.0106070337358984e-06
H	8.70647064625581	-1.1264161419003562	2.0406070337358984e-06
C	-0.4713530743338441	0.061967324440133476	8.280123424717845
C	0.471659334175243	-0.05960452925575513	9.230938751070916
S	-0.9566653899946479	1.6347559114904957	7.5974703171495985
C	-2.164065013269075	0.9896750568544852	6.482555496012246
C	-2.344123018835454	-0.4073512576705627	6.482852301475056
S	-1.3395638015315283	-1.336856410615044	7.5981225361188525
S	1.3403711798695832	1.338612374968815	9.913526110409785
C	2.344560524178255	0.4082135762965371	11.028522471249296
C	2.163865497606328	-0.9887305068636895	11.028189995026509
S	0.9563247914365494	-1.6328534575350957	9.913009702903295
C	3.2765853111160954	1.0156179610779228	11.875172890743116
C	4.007369944790443	0.18519919795809503	12.70618467965528
C	3.828453780279404	-1.19743794191297	12.705813790789431
C	2.9105177995648814	-1.8139175598111745	11.874275898436515
C	5.061771985938256	0.5291169362319198	13.70796227883164
O	5.504120303109407	1.6085168065094853	14.00844630384107
N	5.44879683238528	-0.7047054536101476	14.24971021866557
C	4.760695130536119	-1.7988450832990068	13.707300020379996
O	4.913949823658847	-2.9553950379987834	14.007390589667196
C	-2.911198493798205	1.8140661622429293	5.636089665880391
C	-3.828898008756038	1.1966975109097067	4.80490691561134
C	-4.007139687447205	-0.18602999653425867	4.805211553409259
C	-3.2758914788133886	-1.0156378796517629	5.636585440248766
C	-4.761526792178018	1.79711280708472	3.8031624872802254
N	-5.4490982069476654	0.702332411743683	3.2613577912126415
C	-5.061432613352653	-0.5310096780010642	3.8036843054726903
O	-4.915440754124972	2.9534126449772	3.5024571050376396
O	-5.503162232226463	-1.6108372207076846	3.503858678970544
H	-2.78187439554324	2.890626243697415	5.626515962256973
H	-3.423998438879817	-2.0897859661873253	5.627215574405321
H	3.425275231043619	2.0896803228288237	11.885126887679935
H	2.7806213116005036	-2.8904131417497605	11.88327916617957
H	-6.156717433055421	0.7940843823252256	2.5478203688989156
H	6.156304695619079	-0.7972556085609793	14.96324781281376
