68
84w_H_capped cofacial 3.5A
C	-0.6666540237441905	0.08717236809964371	-8.193929662641018e-07
C	0.6669584062558096	-0.08481539190035631	-1.6793929662641018e-06
S	-1.4324039237441906	1.6961578680996436	-1.3193929662641018e-06
C	-3.0978245637441906	1.1101951480996437	-1.93493929662641e-05
C	-3.277749423744191	-0.2868483519003563	8.920607033735899e-06
S	-1.8150340537441907	-1.2754890819003564	1.5806070337358984e-06
S	1.8160839062558094	1.2772076880996437	4.260607033735898e-06
C	3.278310666255809	0.2876886380996437	-1.8239392966264102e-05
C	3.097494056255809	-1.1092397519003563	1.92406070337359e-05
S	1.4318224262558092	-1.6942303819003564	-8.593929662641018e-07
C	4.558158266255809	0.8501984980996437	1.5290607033735897e-05
C	5.630308916255809	-0.024281391900356275	-2.8949392966264103e-05
C	5.451263756255809	-1.4069018819003563	2.88906070337359e-05
C	4.191706856255809	-1.9792874719003564	-2.0259392966264103e-05
C	7.09626890625581	0.26651533809964373	2.42306070337359e-05
O	7.66204329625581	1.3299842380996436	-1.17993929662641e-05
N	7.70583654625581	-0.9960313119003563	-1.793929662641018e-07
C	6.79490043625581	-2.0614090419003563	-2.1759392966264102e-05
O	7.071447286255809	-3.2338726819003565	1.1230607033735899e-05
C	-4.192675953744191	1.9794672380996436	1.6900607033735897e-05
C	-5.45184851374419	1.4061735280996437	-2.74293929662641e-05
C	-5.629943123744191	0.023427038099643693	2.6890607033735898e-05
C	-4.557178363744191	-0.8502614019003563	-1.3009392966264101e-05
C	-6.795978963744191	2.0597025680996435	2.25706070337359e-05
N	-7.7061367537441905	0.9936520580996437	-7.393929662641019e-07
C	-7.0956893537441905	-0.2684451419003563	-2.1909392966264102e-05
O	-7.0734356137441905	3.2319484280996438	-5.459392966264102e-06
O	-7.660577463744191	-1.3323762519003564	7.080607033735898e-06
H	-4.06729124374419	3.0565357880996435	4.4060703373589816e-07
H	-4.709129943744191	-1.9239132519003563	-1.1293929662641017e-06
H	4.7109313162558095	1.9237338380996436	-1.2939296626410178e-07
H	4.06551701625581	-3.056261481900356	9.06070337358982e-08
H	-8.706879693744192	1.1232383780996438	3.0106070337358984e-06
H	8.70647064625581	-1.1264161419003562	2.0406070337358984e-06
C	-0.666653989292851	0.08717357514615787	3.4999991806068254
C	0.666958440707149	-0.08481418485384215	3.4999983206068253
S	-1.4324038892928512	1.6961590751461577	3.4999986806068253
C	-3.097824529292851	1.1101963551461578	3.4999806506068256
C	-3.2777493892928513	-0.2868471448538421	3.5000089206068257
S	-1.8150340192928514	-1.2754878748538423	3.5000015806068254
S	1.8160839407071487	1.2772088951461578	3.5000042606068256
C	3.2783107007071486	0.28768984514615786	3.4999817606068255
C	3.0974940907071487	-1.1092385448538422	3.5000192406068256
S	1.4318224607071486	-1.6942291748538423	3.4999991406068256
C	4.558158300707149	0.8501997051461578	3.5000152906068256
C	5.630308950707149	-0.02428018485384212	3.4999710506068253
C	5.451263790707149	-1.4069006748538422	3.5000288906068255
C	4.191706890707149	-1.9792862648538423	3.4999797406068254
C	7.09626894070715	0.2665165451461579	3.5000242306068254
O	7.662043330707149	1.3299854451461577	3.4999882006068255
N	7.70583658070715	-0.9960301048538421	3.4999998206068255
C	6.79490047070715	-2.061407834853842	3.4999782406068256
O	7.071447320707149	-3.233871474853842	3.5000112306068254
C	-4.192675919292851	1.9794684451461577	3.5000169006068256
C	-5.451848479292851	1.4061747351461578	3.4999725706068254
C	-5.629943089292851	0.02342824514615785	3.5000268906068253
C	-4.557178329292851	-0.8502601948538421	3.4999869906068253
C	-6.795978929292851	2.0597037751461578	3.5000225706068253
N	-7.706136719292851	0.9936532651461579	3.4999992606068253
C	-7.095689319292851	-0.2684439348538421	3.4999780906068256
O	-7.073435579292851	3.231949635146158	3.4999945406068256
O	-7.660577429292851	-1.3323750448538423	3.5000070806068253
H	-4.067291209292851	3.056536995146158	3.5000004406068252
H	-4.709129909292852	-1.9239120448538423	3.4999988706068255
H	4.710931350707149	1.9237350451461577	3.4999998706068256
H	4.065517050707149	-3.056260274853842	3.5000000906068256
H	-8.706879659292852	1.1232395851461578	3.5000030106068256
H	8.706470680707149	-1.1264149348538421	3.5000020406068253
