68
84w_H_capped cofacial 5.0A
C	-0.6666540237441905	0.08717236809964371	-8.193929662641018e-07
C	0.6669584062558096	-0.08481539190035631	-1.6793929662641018e-06
S	-1.4324039237441906	1.6961578680996436	-1.3193929662641018e-06
C	-3.0978245637441906	1.1101951480996437	-1.93493929662641e-05
C	-3.277749423744191	-0.2868483519003563	8.920607033735899e-06
S	-1.8150340537441907	-1.2754890819003564	1.5806070337358984e-06
S	1.8160839062558094	1.2772076880996437	4.260607033735898e-06
C	3.278310666255809	0.2876886380996437	-1.8239392966264102e-05
C	3.097494056255809	-1.1092397519003563	1.92406070337359e-05
S	1.4318224262558092	-1.6942303819003564	-8.593929662641018e-07
C	4.558158266255809	0.8501984980996437	1.5290607033735897e-05
C	5.630308916255809	-0.024281391900356275	-2.8949392966264103e-05
C	5.451263756255809	-1.4069018819003563	2.88906070337359e-05
C	4.191706856255809	-1.9792874719003564	-2.0259392966264103e-05
C	7.09626890625581	0.26651533809964373	2.42306070337359e-05
O	7.66204329625581	1.3299842380996436	-1.17993929662641e-05
N	7.70583654625581	-0.9960313119003563	-1.793929662641018e-07
C	6.79490043625581	-2.0614090419003563	-2.1759392966264102e-05
O	7.071447286255809	-3.2338726819003565	1.1230607033735899e-05
C	-4.192675953744191	1.9794672380996436	1.6900607033735897e-05
C	-5.45184851374419	1.4061735280996437	-2.74293929662641e-05
C	-5.629943123744191	0.023427038099643693	2.6890607033735898e-05
C	-4.557178363744191	-0.8502614019003563	-1.3009392966264101e-05
C	-6.795978963744191	2.0597025680996435	2.25706070337359e-05
N	-7.7061367537441905	0.9936520580996437	-7.393929662641019e-07
C	-7.0956893537441905	-0.2684451419003563	-2.1909392966264102e-05
O	-7.0734356137441905	3.2319484280996438	-5.459392966264102e-06
O	-7.660577463744191	-1.3323762519003564	7.080607033735898e-06
H	-4.06729124374419	3.0565357880996435	4.4060703373589816e-07
H	-4.709129943744191	-1.9239132519003563	-1.1293929662641017e-06
H	4.7109313162558095	1.9237338380996436	-1.2939296626410178e-07
H	4.06551701625581	-3.056261481900356	9.06070337358982e-08
H	-8.706879693744192	1.1232383780996438	3.0106070337358984e-06
H	8.70647064625581	-1.1264161419003562	2.0406070337358984e-06
C	-0.6666539745279914	0.0871740924518068	4.9999991806067365
C	0.6669584554720087	-0.08481366754819322	4.999998320606736
S	-1.4324038745279914	1.6961595924518067	4.999998680606736
C	-3.0978245145279915	1.1101968724518068	4.999980650606736
C	-3.2777493745279918	-0.28684662754819323	5.000008920606736
S	-1.8150340045279916	-1.2754873575481933	5.000001580606736
S	1.8160839554720085	1.2772094124518067	5.000004260606736
C	3.278310715472008	0.28769036245180674	4.999981760606736
C	3.097494105472008	-1.1092380275481932	5.000019240606736
S	1.4318224754720084	-1.6942286575481933	4.999999140606736
C	4.558158315472008	0.8502002224518067	5.000015290606736
C	5.630308965472008	-0.024279667548193194	4.999971050606736
C	5.451263805472008	-1.4069001575481932	5.000028890606736
C	4.191706905472008	-1.9792857475481933	4.9999797406067366
C	7.096268955472009	0.2665170624518068	5.000024230606736
O	7.662043345472009	1.3299859624518067	4.999988200606736
N	7.705836595472009	-0.9960295875481933	4.999999820606736
C	6.794900485472009	-2.061407317548193	4.999978240606736
O	7.071447335472008	-3.233870957548193	5.000011230606736
C	-4.1926759045279915	1.9794689624518067	5.000016900606736
C	-5.451848464527991	1.4061752524518067	4.999972570606737
C	-5.629943074527992	0.023428762451806775	5.000026890606736
C	-4.557178314527992	-0.8502596775481932	4.999986990606736
C	-6.795978914527992	2.0597042924518068	5.0000225706067365
N	-7.706136704527991	0.9936537824518068	4.999999260606736
C	-7.095689304527991	-0.26844341754819323	4.999978090606736
O	-7.073435564527991	3.231950152451807	4.999994540606736
O	-7.6605774145279915	-1.3323745275481933	5.0000070806067365
H	-4.067291194527991	3.056537512451807	5.000000440606736
H	-4.709129894527992	-1.9239115275481933	4.999998870606736
H	4.710931365472009	1.9237355624518067	4.999999870606736
H	4.065517065472009	-3.056259757548193	5.000000090606736
H	-8.706879644527993	1.1232401024518068	5.000003010606736
H	8.706470695472008	-1.1264144175481932	5.000002040606736
