64
n03 cofacial 3.5A
C	-2.410437753318023	-0.7534017922285768	3.0806221536249655e-05
C	-2.4651875933180225	0.6813545177714232	-2.6113778463750346e-05
C	-1.2660876433180226	1.4030458377714232	1.7716221536249656e-05
C	-0.018787563318023004	0.7179907277714233	-5.345377846375035e-05
C	0.01878747668197711	-0.7179906022285768	5.252622153624966e-05
C	-1.2062446333180228	-1.437973032228577	-1.5773778463750347e-05
C	1.206244096681977	1.4379726777714232	1.5956221536249656e-05
C	2.410437386681977	0.7534026777714232	-2.9823778463750346e-05
C	2.465188156681977	-0.6813535322285768	2.4636221536249654e-05
C	1.266088086681977	-1.403046162228577	-1.6133778463750347e-05
C	-1.2897567433180228	2.888772377771423	-2.1123778463750345e-05
N	-0.04130706331802303	3.506491027771423	4.4716221536249655e-05
C	1.2085735066819772	2.914019267771423	-1.4413778463750343e-05
O	2.223377686681977	3.5871477477714233	-3.2193778463750345e-05
O	-2.2934953833180227	3.574483637771423	-4.4153778463750346e-05
C	-1.2085736333180233	-2.914019552228577	1.3206221536249657e-05
N	0.041307036681977216	-3.5064917722285767	-4.4363778463750346e-05
C	1.2897567566819772	-2.8887726022285767	2.0126221536249655e-05
O	2.293495876681977	-3.574484202228577	4.4506221536249656e-05
O	-2.2233781233180228	-3.587148512228577	3.2756221536249655e-05
S	4.012018346681977	1.462793077771423	-1.1083778463750344e-05
C	4.718721406681977	-0.1401135722285768	-3.6637784637503436e-06
C	3.824435016681977	-1.1552509822285768	8.496221536249656e-06
C	-3.824434463318023	1.1552513477714232	-7.843778463750343e-06
C	-4.718721233318022	0.14011433777142324	3.5562215362496567e-06
S	-4.0120186133180225	-1.4627928122285767	1.0976221536249656e-05
H	-0.055399803318022744	4.519321747771423	6.571622153624965e-05
H	0.05539985668197733	-4.519322672228577	-6.576377846375034e-05
H	-5.796834943318022	0.22848076777142323	3.2362215362496564e-06
H	5.796835006681977	-0.22847999222857684	-3.3537784637503436e-06
H	-4.082932353318022	2.2013939077714233	-8.433778463750344e-06
H	4.082932676681978	-2.201393882228577	8.306221536249657e-06
C	-2.4104420993557194	-0.7533874775767921	3.500030806189565
C	-2.465191939355719	0.6813688324232079	3.499973886189565
C	-1.2660919893557188	1.4030601524232078	3.500017716189565
C	-0.018791909355719227	0.718005042423208	3.499946546189565
C	0.018783130644280888	-0.7179762875767921	3.500052526189565
C	-1.206248979355719	-1.4379587175767925	3.499984226189565
C	1.2062397506442808	1.4379869924232078	3.5000159561895647
C	2.4104330406442807	0.7534169924232079	3.499970176189565
C	2.4651838106442807	-0.6813392175767921	3.500024636189565
C	1.2660837406442809	-1.4030318475767924	3.499983866189565
C	-1.289761089355719	2.8887866924232077	3.499978876189565
N	-0.04131140935571925	3.5065053424232078	3.500044716189565
C	1.208569160644281	2.9140335824232078	3.499985586189565
O	2.223373340644281	3.587162062423208	3.499967806189565
O	-2.293499729355719	3.574497952423208	3.499955846189565
C	-1.2085779793557194	-2.914005237576792	3.500013206189565
N	0.04130269064428099	-3.506477457576792	3.499955636189565
C	1.289752410644281	-2.888758287576792	3.500020126189565
O	2.2934915306442805	-3.574469887576792	3.500044506189565
O	-2.223382469355719	-3.587134197576792	3.5000327561895648
S	4.012014000644281	1.4628073924232077	3.4999889161895648
C	4.718717060644281	-0.14009925757679212	3.499996336189565
C	3.8244306706442805	-1.1552366675767922	3.5000084961895648
C	-3.8244388093557196	1.1552656624232078	3.499992156189565
C	-4.718725579355718	0.1401286524232079	3.500003556189565
S	-4.012022959355718	-1.4627784975767921	3.500010976189565
H	-0.05540414935571897	4.519336062423208	3.5000657161895647
H	0.05539551064428111	-4.519308357576792	3.499934236189565
H	-5.796839289355718	0.2284950824232079	3.5000032361895648
H	5.796830660644281	-0.22846567757679218	3.499996646189565
H	-4.082936699355718	2.201408222423208	3.499991566189565
H	4.082928330644282	-2.201379567576792	3.500008306189565
