68
104a PD short
C	-6.0394111809267645	-0.5437051344726391	3.3566869464902463e-05
C	-6.004301100926765	0.8466879555273609	-1.3573130535097532e-05
C	-4.778313730926764	1.5121912955273609	1.861686946490247e-05
C	-3.584650220926764	0.7943147555273609	-3.619313053509753e-05
C	-3.6201382809267644	-0.6137881344726392	4.249686946490247e-05
C	-4.848615940926765	-1.270370784472639	-5.6513130535097535e-05
N	-2.3397776709267646	1.4204075755273609	2.463686946490247e-05
C	-1.1268900209267643	0.7537859255273609	-3.9553130535097534e-05
C	-1.1633300509267643	-0.697099054472639	3.8416869464902466e-05
N	-2.4083102809267647	-1.3018567244726391	-1.8933130535097532e-05
C	0.07474010907323558	1.407990355527361	6.115686946490247e-05
C	1.3088061190732356	0.6919999055273609	-0.00014926313053509753
C	1.2725553690732356	-0.7573704244726391	0.00015017686946490247
C	0.0040935090732356905	-1.4106869444726393	-6.220313053509753e-05
N	2.458587909073236	1.3602690955273609	7.789686946490246e-05
C	3.593526039073236	0.6284030155273609	-7.738313053509753e-05
C	3.5577152790732356	-0.807823824472639	7.667686946490247e-05
N	2.3876184190732355	-1.482145324472639	-7.919313053509754e-05
C	4.8531043190732355	1.2868867555273609	1.3496869464902468e-05
C	6.016245949073236	0.5601206055273609	3.386869464902468e-06
C	5.980914609073236	-0.8597708444726391	-5.23130535097532e-07
C	4.783132289073236	-1.5279822544726391	-7.983130535097532e-06
H	-2.317868630926764	2.4282212655273607	-1.0633130535097532e-05
H	-2.437238350926764	-2.309489044472639	8.546869464902467e-06
H	-4.745893860926764	2.598120155527361	5.186869464902468e-06
H	-6.924655090926764	1.419910385527361	6.836869464902468e-06
H	-6.987529460926764	-1.069727654472639	-1.534313053509753e-05
H	-4.871374600926765	-2.356543744472639	1.6056869464902467e-05
H	9.735907323560333e-05	-2.4958957044726393	7.346869464902468e-06
H	4.729055279073236	-2.611195164472639	2.736869464902468e-06
H	6.912972809073236	-1.415974524472639	-9.231305350975319e-07
H	6.974774509073236	1.069374865527361	4.826869464902468e-06
H	4.852540619073236	2.371448565527361	-1.4263130535097533e-05
H	0.12502827907323577	2.492037225527361	-9.703130535097532e-06
C	-6.084457713771829	-2.3407128775470327	3.500024552874913
C	-6.049347633771829	-0.9503197875470328	3.4999774128749133
C	-4.8233602637718285	-0.28481644754703284	3.500009602874913
C	-3.6296967537718285	-1.002692987547033	3.499954792874913
C	-3.665184813771829	-2.410795877547033	3.500033482874913
C	-4.893662473771829	-3.067378527547033	3.499934472874913
N	-2.3848242037718292	-0.37660016754703285	3.5000156228749133
C	-1.1719365537718287	-1.043221817547033	3.499951432874913
C	-1.2083765837718288	-2.494106797547033	3.500029402874913
N	-2.4533568137718293	-3.0988644675470325	3.499972052874913
C	0.029693576228171214	-0.38901738754703274	3.500052142874913
C	1.2637595862281712	-1.105007837547033	3.4998417228749132
C	1.2275088362281712	-2.5543781675470325	3.5001411628749133
C	-0.040953023771828675	-3.207694687547033	3.499928782874913
N	2.413541376228171	-0.43673864754703284	3.500068882874913
C	3.5484795062281713	-1.1686047275470328	3.499913602874913
C	3.512668746228171	-2.604831567547033	3.500067662874913
N	2.342571886228171	-3.2791530675470324	3.4999117928749133
C	4.808057786228171	-0.5101209875470328	3.500004482874913
C	5.971199416228171	-1.236887137547033	3.499994372874913
C	5.9358680762281715	-2.656778587547033	3.499990462874913
C	4.7380857562281715	-3.3249899975470325	3.499983002874913
H	-2.3629151637718286	0.631213522452967	3.499980352874913
H	-2.4822848837718285	-4.106496787547033	3.499999532874913
H	-4.7909403937718285	0.8011124124529673	3.499996172874913
H	-6.969701623771829	-0.3770973575470328	3.499997822874913
H	-7.032575993771828	-2.8667353975470324	3.499975642874913
H	-4.916421133771829	-4.153551487547033	3.500007042874913
H	-0.04494917377182876	-4.292903447547033	3.499998332874913
H	4.684008746228172	-4.408202907547033	3.499993722874913
H	6.867926276228172	-3.2129822675470323	3.499990062874913
H	6.929727976228172	-0.7276328775470328	3.4999958128749133
H	4.807494086228171	0.5744408224529672	3.499976722874913
H	0.07998174622817139	0.6950294824529674	3.4999812828749133
