68
104a cofacial 4.5A
C	-6.0394111809267645	-0.5437051344726391	3.3566869464902463e-05
C	-6.004301100926765	0.8466879555273609	-1.3573130535097532e-05
C	-4.778313730926764	1.5121912955273609	1.861686946490247e-05
C	-3.584650220926764	0.7943147555273609	-3.619313053509753e-05
C	-3.6201382809267644	-0.6137881344726392	4.249686946490247e-05
C	-4.848615940926765	-1.270370784472639	-5.6513130535097535e-05
N	-2.3397776709267646	1.4204075755273609	2.463686946490247e-05
C	-1.1268900209267643	0.7537859255273609	-3.9553130535097534e-05
C	-1.1633300509267643	-0.697099054472639	3.8416869464902466e-05
N	-2.4083102809267647	-1.3018567244726391	-1.8933130535097532e-05
C	0.07474010907323558	1.407990355527361	6.115686946490247e-05
C	1.3088061190732356	0.6919999055273609	-0.00014926313053509753
C	1.2725553690732356	-0.7573704244726391	0.00015017686946490247
C	0.0040935090732356905	-1.4106869444726393	-6.220313053509753e-05
N	2.458587909073236	1.3602690955273609	7.789686946490246e-05
C	3.593526039073236	0.6284030155273609	-7.738313053509753e-05
C	3.5577152790732356	-0.807823824472639	7.667686946490247e-05
N	2.3876184190732355	-1.482145324472639	-7.919313053509754e-05
C	4.8531043190732355	1.2868867555273609	1.3496869464902468e-05
C	6.016245949073236	0.5601206055273609	3.386869464902468e-06
C	5.980914609073236	-0.8597708444726391	-5.23130535097532e-07
C	4.783132289073236	-1.5279822544726391	-7.983130535097532e-06
H	-2.317868630926764	2.4282212655273607	-1.0633130535097532e-05
H	-2.437238350926764	-2.309489044472639	8.546869464902467e-06
H	-4.745893860926764	2.598120155527361	5.186869464902468e-06
H	-6.924655090926764	1.419910385527361	6.836869464902468e-06
H	-6.987529460926764	-1.069727654472639	-1.534313053509753e-05
H	-4.871374600926765	-2.356543744472639	1.6056869464902467e-05
H	9.735907323560333e-05	-2.4958957044726393	7.346869464902468e-06
H	4.729055279073236	-2.611195164472639	2.736869464902468e-06
H	6.912972809073236	-1.415974524472639	-9.231305350975319e-07
H	6.974774509073236	1.069374865527361	4.826869464902468e-06
H	4.852540619073236	2.371448565527361	-1.4263130535097533e-05
H	0.12502827907323577	2.492037225527361	-9.703130535097532e-06
C	-6.039410428502352	-0.5437277259547557	4.500033566812694
C	-6.004300348502352	0.8466653640452443	4.4999864268126935
C	-4.778312978502352	1.5121687040452443	4.500018616812693
C	-3.5846494685023513	0.7942921640452443	4.499963806812693
C	-3.620137528502352	-0.6138107259547558	4.500042496812694
C	-4.848615188502352	-1.2703933759547557	4.499943486812693
N	-2.339776918502352	1.4203849840452443	4.500024636812693
C	-1.1268892685023517	0.7537633340452443	4.499960446812693
C	-1.1633292985023518	-0.6971216459547556	4.500038416812694
N	-2.408309528502352	-1.3018793159547557	4.499981066812693
C	0.07474086149764819	1.4079677640452444	4.500061156812693
C	1.3088068714976482	0.6919773140452443	4.499850736812693
C	1.2725561214976482	-0.7573930159547557	4.500150176812693
C	0.004094261497648293	-1.410709535954756	4.499937796812693
N	2.4585886614976484	1.3602465040452443	4.5000778968126935
C	3.5935267914976485	0.6283804240452443	4.499922616812693
C	3.557716031497648	-0.8078464159547556	4.500076676812694
N	2.387619171497648	-1.4821679159547556	4.4999208068126935
C	4.853105071497648	1.2868641640452443	4.500013496812693
C	6.016246701497648	0.5600980140452443	4.500003386812693
C	5.980915361497648	-0.8597934359547557	4.499999476812693
C	4.783133041497648	-1.5280048459547557	4.499992016812693
H	-2.3178678785023514	2.428198674045244	4.499989366812693
H	-2.4372375985023513	-2.3095116359547556	4.500008546812693
H	-4.745893108502352	2.5980975640452444	4.500005186812693
H	-6.924654338502352	1.4198877940452443	4.500006836812694
H	-6.987528708502351	-1.0697502459547557	4.4999846568126936
H	-4.871373848502352	-2.3565663359547555	4.500016056812694
H	9.81114976482059e-05	-2.495918295954756	4.500007346812693
H	4.729056031497649	-2.6112177559547556	4.500002736812694
H	6.912973561497648	-1.4159971159547555	4.499999076812694
H	6.974775261497649	1.0693522740452444	4.5000048268126935
H	4.852541371497648	2.3714259740452444	4.499985736812693
H	0.12502903149764838	2.4920146340452445	4.499990296812693
