68
104a TS90.0
C	-6.0394111809267645	-0.5437051344726391	3.3566869464902463e-05
C	-6.004301100926765	0.8466879555273609	-1.3573130535097532e-05
C	-4.778313730926764	1.5121912955273609	1.861686946490247e-05
C	-3.584650220926764	0.7943147555273609	-3.619313053509753e-05
C	-3.6201382809267644	-0.6137881344726392	4.249686946490247e-05
C	-4.848615940926765	-1.270370784472639	-5.6513130535097535e-05
N	-2.3397776709267646	1.4204075755273609	2.463686946490247e-05
C	-1.1268900209267643	0.7537859255273609	-3.9553130535097534e-05
C	-1.1633300509267643	-0.697099054472639	3.8416869464902466e-05
N	-2.4083102809267647	-1.3018567244726391	-1.8933130535097532e-05
C	0.07474010907323558	1.407990355527361	6.115686946490247e-05
C	1.3088061190732356	0.6919999055273609	-0.00014926313053509753
C	1.2725553690732356	-0.7573704244726391	0.00015017686946490247
C	0.0040935090732356905	-1.4106869444726393	-6.220313053509753e-05
N	2.458587909073236	1.3602690955273609	7.789686946490246e-05
C	3.593526039073236	0.6284030155273609	-7.738313053509753e-05
C	3.5577152790732356	-0.807823824472639	7.667686946490247e-05
N	2.3876184190732355	-1.482145324472639	-7.919313053509754e-05
C	4.8531043190732355	1.2868867555273609	1.3496869464902468e-05
C	6.016245949073236	0.5601206055273609	3.386869464902468e-06
C	5.980914609073236	-0.8597708444726391	-5.23130535097532e-07
C	4.783132289073236	-1.5279822544726391	-7.983130535097532e-06
H	-2.317868630926764	2.4282212655273607	-1.0633130535097532e-05
H	-2.437238350926764	-2.309489044472639	8.546869464902467e-06
H	-4.745893860926764	2.598120155527361	5.186869464902468e-06
H	-6.924655090926764	1.419910385527361	6.836869464902468e-06
H	-6.987529460926764	-1.069727654472639	-1.534313053509753e-05
H	-4.871374600926765	-2.356543744472639	1.6056869464902467e-05
H	9.735907323560333e-05	-2.4958957044726393	7.346869464902468e-06
H	4.729055279073236	-2.611195164472639	2.736869464902468e-06
H	6.912972809073236	-1.415974524472639	-9.231305350975319e-07
H	6.974774509073236	1.069374865527361	4.826869464902468e-06
H	4.852540619073236	2.371448565527361	-1.4263130535097533e-05
H	0.12502827907323577	2.492037225527361	-9.703130535097532e-06
C	-0.01744856987356822	-0.6946833420573888	3.804634791994512
C	0.017460192336864046	0.6957147930427842	3.8048972618612202
C	0.03487371071496315	1.391508711647637	5.013825431851923
C	0.01769004708918585	0.7039797258914924	6.2251007598601955
C	-0.017694253511335207	-0.7041257637779244	6.224904151374735
C	-0.034819007834926106	-1.391068644696606	5.013262963420324
N	0.03409927084472493	1.3608616162000569	7.453895619981172
C	0.018221369809008646	0.7250366100023575	8.68310485100899
C	-0.018234815320397814	-0.7258479642451763	8.683028485537557
N	-0.03411298296285521	-1.3614107132116595	7.453591422600951
C	0.03526797209695803	1.4089303479833648	9.86796652403194
C	0.018312503389954785	0.724294342328185	11.119584412065883
C	-0.018327010148730123	-0.7250662409846906	11.119659317302888
C	-0.03528170014338309	-1.4097493824201806	9.867964648062003
N	0.035552559715210756	1.4209485141370455	12.252261626403552
C	0.018081913110979564	0.7179653413867972	13.405180520962734
C	-0.01808264855491668	-0.7182526296373074	13.405365965198204
N	-0.03555838558590473	-1.4214623619909204	12.252531700276332
C	0.03528196283230535	1.4075869022927807	14.647864933263175
C	0.017811694858067308	0.7104105179734757	15.828850694062798
C	-0.017785323524115014	-0.7094742732768082	15.829106121200205
C	-0.035273708046107126	-1.4072674799453568	14.648441998026955
H	0.05940144460822397	2.3685902634260514	7.450546800484807
H	-0.059407232573345535	-2.3691341076019197	7.449918871325351
H	0.06211801263509246	2.4775672871144736	5.019026950852436
H	0.031225236687079133	1.245525326851815	2.870469992328027
H	-0.031175845799185843	-1.2441245752863488	2.8699937593338456
H	-0.06212248029550929	-2.4771276969337213	5.017725737442764
H	-0.06254621010972429	-2.4943749649931966	9.89115988371944
H	-0.06246084726845331	-2.4911543326586885	14.621522089182022
H	-0.03113657613856574	-1.241983084274729	16.774807518098903
H	0.031172795264079966	1.2433535818509298	16.774318870854987
H	0.062485621413227437	2.4914527765408003	14.620127488550784
H	0.062533749817516	2.493554229185719	9.891077887269983
