68
104a TS45.0anti
C	-6.0394111809267645	-0.5437051344726391	3.3566869464902463e-05
C	-6.004301100926765	0.8466879555273609	-1.3573130535097532e-05
C	-4.778313730926764	1.5121912955273609	1.861686946490247e-05
C	-3.584650220926764	0.7943147555273609	-3.619313053509753e-05
C	-3.6201382809267644	-0.6137881344726392	4.249686946490247e-05
C	-4.848615940926765	-1.270370784472639	-5.6513130535097535e-05
N	-2.3397776709267646	1.4204075755273609	2.463686946490247e-05
C	-1.1268900209267643	0.7537859255273609	-3.9553130535097534e-05
C	-1.1633300509267643	-0.697099054472639	3.8416869464902466e-05
N	-2.4083102809267647	-1.3018567244726391	-1.8933130535097532e-05
C	0.07474010907323558	1.407990355527361	6.115686946490247e-05
C	1.3088061190732356	0.6919999055273609	-0.00014926313053509753
C	1.2725553690732356	-0.7573704244726391	0.00015017686946490247
C	0.0040935090732356905	-1.4106869444726393	-6.220313053509753e-05
N	2.458587909073236	1.3602690955273609	7.789686946490246e-05
C	3.593526039073236	0.6284030155273609	-7.738313053509753e-05
C	3.5577152790732356	-0.807823824472639	7.667686946490247e-05
N	2.3876184190732355	-1.482145324472639	-7.919313053509754e-05
C	4.8531043190732355	1.2868867555273609	1.3496869464902468e-05
C	6.016245949073236	0.5601206055273609	3.386869464902468e-06
C	5.980914609073236	-0.8597708444726391	-5.23130535097532e-07
C	4.783132289073236	-1.5279822544726391	-7.983130535097532e-06
H	-2.317868630926764	2.4282212655273607	-1.0633130535097532e-05
H	-2.437238350926764	-2.309489044472639	8.546869464902467e-06
H	-4.745893860926764	2.598120155527361	5.186869464902468e-06
H	-6.924655090926764	1.419910385527361	6.836869464902468e-06
H	-6.987529460926764	-1.069727654472639	-1.534313053509753e-05
H	-4.871374600926765	-2.356543744472639	1.6056869464902467e-05
H	9.735907323560333e-05	-2.4958957044726393	7.346869464902468e-06
H	4.729055279073236	-2.611195164472639	2.736869464902468e-06
H	6.912972809073236	-1.415974524472639	-9.231305350975319e-07
H	6.974774509073236	1.069374865527361	4.826869464902468e-06
H	4.852540619073236	2.371448565527361	-1.4263130535097533e-05
H	0.12502827907323577	2.492037225527361	-9.703130535097532e-06
C	-4.275635925635555	-0.5878608331352405	-11.719093773305397
C	-4.240562402370698	0.8025331722866899	-11.718944401002233
C	-3.3685700649762467	1.476906204997199	-10.864081777965605
C	-2.5295342763365722	0.7679152095412377	-10.007618107670016
C	-2.5650274549110104	-0.6401875513475642	-10.007698562931793
C	-3.4386684286311606	-1.3056609831864234	-10.864526846636874
N	-1.6444941923951628	1.4030239851563115	-9.138687280933475
C	-0.7914784444264751	0.7454192776891435	-8.269549166289984
C	-0.8279585058758279	-0.7054646984284364	-8.26954501713372
N	-1.7129205850363651	-1.3192429765238085	-9.138927533400203
C	0.06315485968958064	1.4083180541606921	-7.431655650772563
C	0.9308908062476943	0.7015063607914721	-6.546775521618038
C	0.894399186400675	-0.7478579309014814	-6.546507808134158
C	-0.007418124163351938	-1.4103610914597458	-7.431738349463483
N	1.7488661272905532	1.378089289253088	-5.745692603562945
C	2.546334320045314	0.6546788476960014	-4.930564173998022
C	2.51035315704981	-0.7815437210721207	-4.930321124137259
N	1.6779143503869127	-1.464325575998829	-5.745606806081976
C	3.4419921770253867	1.3222809713783634	-4.051790770192477
C	4.259343264876375	0.6041789421866158	-3.216713430548661
C	4.2239327792900045	-0.8157105247109355	-3.216532630906128
C	3.371852250319105	-1.492583831878979	-4.051392063868642
H	-1.6215746284715085	2.4108123550846385	-9.1410822873771
H	-1.740797805652689	-2.326901626258448	-9.141502894215732
H	-3.3376582670466592	2.5628728510312992	-10.860415501613708
H	-4.887326522448501	1.368900540181455	-12.379670970124842
H	-4.950058256600338	-1.1207410737967187	-12.380018228457491
H	-3.4627905395091143	-2.3917997798059307	-10.861317617557859
H	-0.01826047260303754	-2.4953983124969055	-7.41528540817527
H	3.3256444122084803	-2.575993911529599	-4.070417481727574
H	4.879085971959936	-1.3649760783895595	-2.547819936612494
H	4.94103914680987	1.1203695161922602	-2.5481665604426587
H	3.4495750957584987	2.406638659530073	-4.071425986731921
H	0.10673152073869469	2.492533086828613	-7.415365808274996
