68
104a TS45.0
C	-6.0394111809267645	-0.5437051344726391	3.3566869464902463e-05
C	-6.004301100926765	0.8466879555273609	-1.3573130535097532e-05
C	-4.778313730926764	1.5121912955273609	1.861686946490247e-05
C	-3.584650220926764	0.7943147555273609	-3.619313053509753e-05
C	-3.6201382809267644	-0.6137881344726392	4.249686946490247e-05
C	-4.848615940926765	-1.270370784472639	-5.6513130535097535e-05
N	-2.3397776709267646	1.4204075755273609	2.463686946490247e-05
C	-1.1268900209267643	0.7537859255273609	-3.9553130535097534e-05
C	-1.1633300509267643	-0.697099054472639	3.8416869464902466e-05
N	-2.4083102809267647	-1.3018567244726391	-1.8933130535097532e-05
C	0.07474010907323558	1.407990355527361	6.115686946490247e-05
C	1.3088061190732356	0.6919999055273609	-0.00014926313053509753
C	1.2725553690732356	-0.7573704244726391	0.00015017686946490247
C	0.0040935090732356905	-1.4106869444726393	-6.220313053509753e-05
N	2.458587909073236	1.3602690955273609	7.789686946490246e-05
C	3.593526039073236	0.6284030155273609	-7.738313053509753e-05
C	3.5577152790732356	-0.807823824472639	7.667686946490247e-05
N	2.3876184190732355	-1.482145324472639	-7.919313053509754e-05
C	4.8531043190732355	1.2868867555273609	1.3496869464902468e-05
C	6.016245949073236	0.5601206055273609	3.386869464902468e-06
C	5.980914609073236	-0.8597708444726391	-5.23130535097532e-07
C	4.783132289073236	-1.5279822544726391	-7.983130535097532e-06
H	-2.317868630926764	2.4282212655273607	-1.0633130535097532e-05
H	-2.437238350926764	-2.309489044472639	8.546869464902467e-06
H	-4.745893860926764	2.598120155527361	5.186869464902468e-06
H	-6.924655090926764	1.419910385527361	6.836869464902468e-06
H	-6.987529460926764	-1.069727654472639	-1.534313053509753e-05
H	-4.871374600926765	-2.356543744472639	1.6056869464902467e-05
H	9.735907323560333e-05	-2.4958957044726393	7.346869464902468e-06
H	4.729055279073236	-2.611195164472639	2.736869464902468e-06
H	6.912972809073236	-1.415974524472639	-9.231305350975319e-07
H	6.974774509073236	1.069374865527361	4.826869464902468e-06
H	4.852540619073236	2.371448565527361	-1.4263130535097533e-05
H	0.12502827907323577	2.492037225527361	-9.703130535097532e-06
C	-4.275633429622564	-0.5879357757233716	3.2087292373539613
C	-4.240559906357707	0.8024582296985587	3.208878609657127
C	-3.3685675689632557	1.4768312624090678	4.0637412326937525
C	-2.5295317803235813	0.7678402669531066	4.920204902989344
C	-2.5650249588980194	-0.6402624939356953	4.9201244477275665
C	-3.4386659326181697	-1.3057359257745547	4.063296164022484
N	-1.6444916963821716	1.4029490425681803	5.789135729725883
C	-0.7914759484134838	0.7453443351010124	6.658273844369375
C	-0.8279560098628366	-0.7055396410165675	6.65827799352564
N	-1.712918089023374	-1.3193179191119397	5.788895477259155
C	0.06315735570257183	1.4082431115725609	7.496167359886796
C	0.9308933022606856	0.701431418203341	8.381047489041322
C	0.8944016824136662	-0.7479328734896126	8.381315202525201
C	-0.007415628150360744	-1.410436034047877	7.496084661195876
N	1.7488686233035444	1.3780143466649568	9.182130407096414
C	2.546336816058305	0.6546039051078703	9.997258836661338
C	2.510355653062801	-0.7816186636602518	9.9975018865221
N	1.677916846399904	-1.4644005185869602	9.182216204577383
C	3.4419946730383777	1.3222060287902322	10.876032240466882
C	4.259345760889366	0.6041039995984847	11.711109580110698
C	4.2239352753029955	-0.8157854672990666	11.71129037975323
C	3.371854746332096	-1.4926587744671103	10.876430946790716
H	-1.6215721324585173	2.4107374124965077	5.786740723282259
H	-1.7407953096396978	-2.326976568846579	5.786320116443627
H	-3.3376557710336683	2.5627979084431685	4.067407509045651
H	-4.88732402643551	1.3688255975933237	2.548152040534518
H	-4.950055760587347	-1.12081601638485	2.547804782201869
H	-3.4627880434961233	-2.3918747223940615	4.0665053931015
H	-0.018257976590046344	-2.4954732550850363	7.512537602484088
H	3.3256469082214712	-2.5760688541177297	10.857405528931785
H	4.879088467972927	-1.3650510209776907	12.380003074046865
H	4.941041642822861	1.120294573604129	12.3796564502167
H	3.4495775917714897	2.406563716941942	10.856397023927439
H	0.10673401675168588	2.4924581442404823	7.512457202384363
