54
48b TS45.0
C	-0.7175337621015441	0.24488103190557275	1.1555201167262668e-05
C	0.7378863578984558	0.17417248190557277	4.535201167262667e-06
C	1.2077090878984558	-1.1665646280944273	-1.2934798832737331e-05
S	-0.11388782210154424	-2.343289128094427	-2.0347988327373324e-06
C	-1.315125432101544	-1.0439766580944272	-6.034798832737331e-06
C	1.6570784978984558	1.2190657619055727	-8.084798832737332e-06
C	3.028012067898456	0.9376534619055727	1.6505201167262666e-05
C	3.459385667898456	-0.41630433809442724	-1.0347988327373323e-06
C	2.559299947898456	-1.4796606880944272	8.485201167262669e-06
C	-1.530998452101544	1.3739984819055728	-1.1754798832737333e-05
C	-2.9228110521015442	1.2269216919055725	1.2135201167262667e-05
C	-3.483431662101544	-0.07887133809442726	-3.864798832737332e-06
C	-2.6906782621015446	-1.2245236680944274	2.745201167262668e-06
C	4.140948207898456	1.8520795819055726	-8.014798832737331e-06
C	5.341326427898456	1.2279129419055728	4.552011672626678e-07
S	5.213086907898456	-0.5207107480944273	1.2652011672626677e-06
C	-3.9418983121015443	2.2449406819055726	-6.424798832737333e-06
C	-5.197117862101544	1.7400440419055727	1.3052011672626678e-06
S	-5.239027682101543	-0.012765958094427265	1.0552011672626679e-06
H	-6.131154252101544	2.283337441905573	1.6152011672626678e-06
H	-3.1301336621015445	-2.215936968094427	-3.4947988327373324e-06
H	2.9006587978984557	-2.5089791480944275	1.752011672626678e-07
H	6.323677587898455	1.6779596119055726	-1.5947988327373322e-06
H	1.319636377898456	2.250832781905573	-1.2547988327373323e-06
H	-1.094788902101544	2.368050091905573	1.6452011672626677e-06
H	-3.7262814121015437	3.306856651905573	4.3520116726266775e-07
H	4.029094427898456	2.929880631905573	-1.5247988327373322e-06
C	-0.50439836225986	0.23452271755586587	6.441293926280894
C	0.5247443779147427	0.18453109687620772	7.471640219039269
C	0.8382560454666698	-1.1486093509832087	7.849471367372768
S	-0.1138845313820925	-2.3432892976080715	6.956461239439647
C	-0.945662521408488	-1.061932433971375	6.063458073873706
C	1.1901931726719048	1.241756213369728	8.084966487511203
C	2.1565220687730977	0.9800075568764783	9.062896874569878
C	2.442631862504764	-0.3668904737112207	9.414026178951117
C	1.7904465294210905	-1.4422946945044777	8.81482580867882
C	-1.0641151605699808	1.3513081101065343	5.827992604751605
C	-2.0513413697337715	1.1845685651502686	4.850057927825756
C	-2.4666791468050944	-0.1282851589510621	4.498916167478072
C	-1.9218447527644082	-1.2618887132788816	5.0981454050619295
C	2.9572579193271324	1.9096065001045577	9.81752915829774
C	3.7980122021947733	1.3029174557737029	10.686754390869616
S	3.682411942952486	-0.4463204978118652	10.656203686809123
C	-2.758178254864827	2.187412297788295	4.095347669802017
C	-3.653794295210895	1.6650390548873941	3.2261556086203287
S	-3.7083493576914788	-0.08715639081742808	3.2567202012319396
H	-4.307187324249418	2.194693287180094	2.5478226224356817
H	-2.2469645617111933	-2.2588586824120847	4.821795318175869
H	2.017447831844481	-2.4660554182920733	9.091243510295657
H	4.499709895988979	1.7666037845922846	11.36511354480378
H	0.9659999369730979	2.268019377798901	7.811229974858719
H	-0.741260344694458	2.35086871994125	6.101964738676188
H	-2.5904898837882735	3.251657577278165	4.211187085559057
H	2.8933893889493247	2.9850754840089033	9.701539300936657
