54
48b TL45.0anti
C	-0.7175337621015441	0.24488103190557275	1.1555201167262668e-05
C	0.7378863578984558	0.17417248190557277	4.535201167262667e-06
C	1.2077090878984558	-1.1665646280944273	-1.2934798832737331e-05
S	-0.11388782210154424	-2.343289128094427	-2.0347988327373324e-06
C	-1.315125432101544	-1.0439766580944272	-6.034798832737331e-06
C	1.6570784978984558	1.2190657619055727	-8.084798832737332e-06
C	3.028012067898456	0.9376534619055727	1.6505201167262666e-05
C	3.459385667898456	-0.41630433809442724	-1.0347988327373323e-06
C	2.559299947898456	-1.4796606880944272	8.485201167262669e-06
C	-1.530998452101544	1.3739984819055728	-1.1754798832737333e-05
C	-2.9228110521015442	1.2269216919055725	1.2135201167262667e-05
C	-3.483431662101544	-0.07887133809442726	-3.864798832737332e-06
C	-2.6906782621015446	-1.2245236680944274	2.745201167262668e-06
C	4.140948207898456	1.8520795819055726	-8.014798832737331e-06
C	5.341326427898456	1.2279129419055728	4.552011672626678e-07
S	5.213086907898456	-0.5207107480944273	1.2652011672626677e-06
C	-3.9418983121015443	2.2449406819055726	-6.424798832737333e-06
C	-5.197117862101544	1.7400440419055727	1.3052011672626678e-06
S	-5.239027682101543	-0.012765958094427265	1.0552011672626679e-06
H	-6.131154252101544	2.283337441905573	1.6152011672626678e-06
H	-3.1301336621015445	-2.215936968094427	-3.4947988327373324e-06
H	2.9006587978984557	-2.5089791480944275	1.752011672626678e-07
H	6.323677587898455	1.6779596119055726	-1.5947988327373322e-06
H	1.319636377898456	2.250832781905573	-1.2547988327373323e-06
H	-1.094788902101544	2.368050091905573	1.6452011672626677e-06
H	-3.7262814121015437	3.306856651905573	4.3520116726266775e-07
H	4.029094427898456	2.929880631905573	-1.5247988327373322e-06
C	-0.7205162040806812	0.1835075711214904	4.36864702028907
C	0.7349038077234827	0.11279679482765144	4.368659230398537
C	1.2234425833207818	-0.8428324528695068	3.437846681200439
S	-0.08053201507682764	-1.6569541414942868	2.561402122551612
C	-1.2993918710327113	-0.7202431320859761	3.4378368473226457
C	1.6386235441549013	0.8393245187399675	5.138181329728582
C	3.0126064173418285	0.6206557415165498	4.986501513650391
C	3.4629103474220098	-0.3437850041477681	4.045031744660303
C	2.578546143443068	-1.083649973622303	3.2631233023289727
C	-1.5494531775684177	0.9942619358298597	5.138174064911919
C	-2.938217395846434	0.9099097082209567	4.986541139812313
C	-3.479907075993931	-0.006353926315522887	4.045040131710327
C	-2.6714317146412845	-0.8285057124999816	3.263112228992249
C	4.111789601132134	1.2520962521575207	5.670519928060165
C	5.32020281522057	0.7932604445567819	5.270896265984417
S	5.21688383763879	-0.4425894990110986	4.031489032838497
C	-3.9710574892213173	1.6449456163694347	5.670547764845365
C	-5.218241003267376	1.3054012465532001	5.270873348522445
S	-5.235230376487413	0.06536302509642729	4.0314719205595715
H	-6.159348033353628	1.7032066974619138	5.622526696974348
H	-3.0965046246392482	-1.523979897004571	2.5478150460546076
H	2.934286954341154	-1.8170402051591947	2.5478544015741673
H	6.295484987687224	1.0978531689627113	5.62246953437002
H	1.2867620390759562	1.574393257313983	5.855312976479169
H	-1.1276615896006046	1.6916445455266849	5.855228265824508
H	-3.77066981842875	2.3934996705483607	6.42795636284273
H	3.984707029684055	2.0165443938240766	6.427907167363947
