54
48b cofacial 5.0A
C	-0.7175337621015441	0.24488103190557275	1.1555201167262668e-05
C	0.7378863578984558	0.17417248190557277	4.535201167262667e-06
C	1.2077090878984558	-1.1665646280944273	-1.2934798832737331e-05
S	-0.11388782210154424	-2.343289128094427	-2.0347988327373324e-06
C	-1.315125432101544	-1.0439766580944272	-6.034798832737331e-06
C	1.6570784978984558	1.2190657619055727	-8.084798832737332e-06
C	3.028012067898456	0.9376534619055727	1.6505201167262666e-05
C	3.459385667898456	-0.41630433809442724	-1.0347988327373323e-06
C	2.559299947898456	-1.4796606880944272	8.485201167262669e-06
C	-1.530998452101544	1.3739984819055728	-1.1754798832737333e-05
C	-2.9228110521015442	1.2269216919055725	1.2135201167262667e-05
C	-3.483431662101544	-0.07887133809442726	-3.864798832737332e-06
C	-2.6906782621015446	-1.2245236680944274	2.745201167262668e-06
C	4.140948207898456	1.8520795819055726	-8.014798832737331e-06
C	5.341326427898456	1.2279129419055728	4.552011672626678e-07
S	5.213086907898456	-0.5207107480944273	1.2652011672626677e-06
C	-3.9418983121015443	2.2449406819055726	-6.424798832737333e-06
C	-5.197117862101544	1.7400440419055727	1.3052011672626678e-06
S	-5.239027682101543	-0.012765958094427265	1.0552011672626679e-06
H	-6.131154252101544	2.283337441905573	1.6152011672626678e-06
H	-3.1301336621015445	-2.215936968094427	-3.4947988327373324e-06
H	2.9006587978984557	-2.5089791480944275	1.752011672626678e-07
H	6.323677587898455	1.6779596119055726	-1.5947988327373322e-06
H	1.319636377898456	2.250832781905573	-1.2547988327373323e-06
H	-1.094788902101544	2.368050091905573	1.6452011672626677e-06
H	-3.7262814121015437	3.306856651905573	4.3520116726266775e-07
H	4.029094427898456	2.929880631905573	-1.5247988327373322e-06
C	-0.7175334351539306	0.24488100912615618	5.000011555201157
C	0.7378866848460692	0.1741724591261562	5.000004535201157
C	1.2077094148460692	-1.1665646508738439	4.999987065201156
S	-0.11388749515393083	-2.3432891508738436	4.999997965201157
C	-1.3151251051539306	-1.0439766808738438	4.999993965201156
C	1.6570788248460693	1.2190657391261561	4.999991915201156
C	3.0280123948460695	0.9376534391261562	5.000016505201157
C	3.4593859948460692	-0.4163043608738438	4.999998965201157
C	2.5593002748460694	-1.4796607108738438	5.000008485201157
C	-1.5309981251539306	1.3739984591261563	4.999988245201156
C	-2.922810725153931	1.226921669126156	5.000012135201157
C	-3.4834313351539308	-0.07887136087384383	4.999996135201156
C	-2.690677935153931	-1.224523690873844	5.000002745201156
C	4.140948534846069	1.852079559126156	4.999991985201157
C	5.341326754846069	1.2279129191261562	5.000000455201157
S	5.213087234846069	-0.5207107708738439	5.000001265201156
C	-3.941897985153931	2.244940659126156	4.999993575201157
C	-5.197117535153931	1.7400440191261561	5.000001305201157
S	-5.23902735515393	-0.012765980873843842	5.000001055201157
H	-6.131153925153931	2.2833374191261564	5.000001615201157
H	-3.130133335153931	-2.2159369908738435	4.999996505201157
H	2.900659124846069	-2.508979170873844	5.000000175201157
H	6.323677914846068	1.677959589126156	4.999998405201157
H	1.3196367048460693	2.2508327591261565	4.9999987452011565
H	-1.0947885751539306	2.3680500691261566	5.000001645201157
H	-3.7262810851539303	3.3068566291261563	5.000000435201157
H	4.029094754846069	2.9298806091261564	4.999998475201156
