54
48b PD long
C	-0.7175337621015441	0.24488103190557275	1.1555201167262668e-05
C	0.7378863578984558	0.17417248190557277	4.535201167262667e-06
C	1.2077090878984558	-1.1665646280944273	-1.2934798832737331e-05
S	-0.11388782210154424	-2.343289128094427	-2.0347988327373324e-06
C	-1.315125432101544	-1.0439766580944272	-6.034798832737331e-06
C	1.6570784978984558	1.2190657619055727	-8.084798832737332e-06
C	3.028012067898456	0.9376534619055727	1.6505201167262666e-05
C	3.459385667898456	-0.41630433809442724	-1.0347988327373323e-06
C	2.559299947898456	-1.4796606880944272	8.485201167262669e-06
C	-1.530998452101544	1.3739984819055728	-1.1754798832737333e-05
C	-2.9228110521015442	1.2269216919055725	1.2135201167262667e-05
C	-3.483431662101544	-0.07887133809442726	-3.864798832737332e-06
C	-2.6906782621015446	-1.2245236680944274	2.745201167262668e-06
C	4.140948207898456	1.8520795819055726	-8.014798832737331e-06
C	5.341326427898456	1.2279129419055728	4.552011672626678e-07
S	5.213086907898456	-0.5207107480944273	1.2652011672626677e-06
C	-3.9418983121015443	2.2449406819055726	-6.424798832737333e-06
C	-5.197117862101544	1.7400440419055727	1.3052011672626678e-06
S	-5.239027682101543	-0.012765958094427265	1.0552011672626679e-06
H	-6.131154252101544	2.283337441905573	1.6152011672626678e-06
H	-3.1301336621015445	-2.215936968094427	-3.4947988327373324e-06
H	2.9006587978984557	-2.5089791480944275	1.752011672626678e-07
H	6.323677587898455	1.6779596119055726	-1.5947988327373322e-06
H	1.319636377898456	2.250832781905573	-1.2547988327373323e-06
H	-1.094788902101544	2.368050091905573	1.6452011672626677e-06
H	-3.7262814121015437	3.306856651905573	4.3520116726266775e-07
H	4.029094427898456	2.929880631905573	-1.5247988327373322e-06
C	2.94552840317147	0.06685749412887096	3.500011314864233
C	4.400948523171469	-0.0038510558711290287	3.500004294864233
C	4.87077125317147	-1.344588165871129	3.499986824864233
S	3.5491743431714697	-2.521312665871129	3.499997724864233
C	2.34793673317147	-1.2220001958711288	3.4999937248642334
C	5.32014066317147	1.041042224128871	3.4999916748642335
C	6.69107423317147	0.759629924128871	3.5000162648642332
C	7.12244783317147	-0.5943278758711291	3.4999987248642332
C	6.22236211317147	-1.6576842258711288	3.500008244864233
C	2.13206371317147	1.1959749441288712	3.499988004864233
C	0.74025111317147	1.0488981541288709	3.500011894864233
C	0.17963050317147	-0.2568948758711291	3.499995894864233
C	0.9723839031714696	-1.402547205871129	3.5000025048642334
C	7.80401037317147	1.674056044128871	3.4999917448642335
C	9.004388593171472	1.049889404128871	3.500000214864233
S	8.87614907317147	-0.6987342858711291	3.5000010248642335
C	-0.2788361468285301	2.0669171441288707	3.499993334864233
C	-1.5340556968285302	1.562020504128871	3.5000010648642332
S	-1.5759655168285291	-0.19078949587112906	3.5000008148642334
H	-2.4680920868285297	2.105313904128871	3.500001374864233
H	0.5329285031714697	-2.393960505871129	3.499996264864233
H	6.56372096317147	-2.6870026858711293	3.4999999348642334
H	9.98673975317147	1.499936074128871	3.499998164864233
H	4.98269854317147	2.0728092441288712	3.4999985048642333
H	2.56827326317147	2.1900265541288713	3.5000014048642334
H	-0.06321924682852953	3.128833114128871	3.500000194864233
H	7.69215659317147	2.751857094128871	3.499998234864233
