54
48b PD long+short
C	-0.7175337621015441	0.24488103190557275	1.1555201167262668e-05
C	0.7378863578984558	0.17417248190557277	4.535201167262667e-06
C	1.2077090878984558	-1.1665646280944273	-1.2934798832737331e-05
S	-0.11388782210154424	-2.343289128094427	-2.0347988327373324e-06
C	-1.315125432101544	-1.0439766580944272	-6.034798832737331e-06
C	1.6570784978984558	1.2190657619055727	-8.084798832737332e-06
C	3.028012067898456	0.9376534619055727	1.6505201167262666e-05
C	3.459385667898456	-0.41630433809442724	-1.0347988327373323e-06
C	2.559299947898456	-1.4796606880944272	8.485201167262669e-06
C	-1.530998452101544	1.3739984819055728	-1.1754798832737333e-05
C	-2.9228110521015442	1.2269216919055725	1.2135201167262667e-05
C	-3.483431662101544	-0.07887133809442726	-3.864798832737332e-06
C	-2.6906782621015446	-1.2245236680944274	2.745201167262668e-06
C	4.140948207898456	1.8520795819055726	-8.014798832737331e-06
C	5.341326427898456	1.2279129419055728	4.552011672626678e-07
S	5.213086907898456	-0.5207107480944273	1.2652011672626677e-06
C	-3.9418983121015443	2.2449406819055726	-6.424798832737333e-06
C	-5.197117862101544	1.7400440419055727	1.3052011672626678e-06
S	-5.239027682101543	-0.012765958094427265	1.0552011672626679e-06
H	-6.131154252101544	2.283337441905573	1.6152011672626678e-06
H	-3.1301336621015445	-2.215936968094427	-3.4947988327373324e-06
H	2.9006587978984557	-2.5089791480944275	1.752011672626678e-07
H	6.323677587898455	1.6779596119055726	-1.5947988327373322e-06
H	1.319636377898456	2.250832781905573	-1.2547988327373323e-06
H	-1.094788902101544	2.368050091905573	1.6452011672626677e-06
H	-3.7262814121015437	3.306856651905573	4.3520116726266775e-07
H	4.029094427898456	2.929880631905573	-1.5247988327373322e-06
C	2.861422250394979	-1.6637343045532194	3.5000113124795202
C	4.316842370394979	-1.7344428545532193	3.5000042924795203
C	4.786665100394979	-3.0751799645532194	3.4999868224795203
S	3.465068190394979	-4.251904464553219	3.4999977224795202
C	2.263830580394979	-2.9525919945532193	3.49999372247952
C	5.236034510394979	-0.6895495745532195	3.49999167247952
C	6.606968080394979	-0.9709618745532195	3.5000162624795204
C	7.038341680394979	-2.3249196745532195	3.4999987224795204
C	6.13825596039498	-3.3882760245532193	3.5000082424795202
C	2.047957560394979	-0.5346168545532194	3.4999880024795202
C	0.6561449603949792	-0.6816936445532197	3.5000118924795203
C	0.0955243503949792	-1.9874866745532194	3.4999958924795203
C	0.8882777503949788	-3.1331390045532195	3.50000250247952
C	7.719904220394979	-0.056535754553219554	3.49999174247952
C	8.92028244039498	-0.6807023945532195	3.50000021247952
S	8.79204292039498	-2.429326084553219	3.50000102247952
C	-0.3629422996050209	0.3363253454467804	3.4999933324795203
C	-1.618161849605021	-0.16857129455321948	3.5000010624795204
S	-1.66007166960502	-1.9213812945532194	3.50000081247952
H	-2.5521982396050205	0.37472210544678075	3.5000013724795203
H	0.44882235039497886	-4.1245523045532195	3.4999962624795202
H	6.479614810394978	-4.41759448455322	3.49999993247952
H	9.90263360039498	-0.23065572455321956	3.4999981624795202
H	4.898592390394979	0.3422174454467809	3.4999985024795204
H	2.484167110394979	0.4594347554467809	3.50000140247952
H	-0.14732539960502034	1.3982413154467808	3.5000001924795203
H	7.608050440394979	1.021265295446781	3.4999982324795202
