54
48b TS90.0
C	-0.7175337621015441	0.24488103190557275	1.1555201167262668e-05
C	0.7378863578984558	0.17417248190557277	4.535201167262667e-06
C	1.2077090878984558	-1.1665646280944273	-1.2934798832737331e-05
S	-0.11388782210154424	-2.343289128094427	-2.0347988327373324e-06
C	-1.315125432101544	-1.0439766580944272	-6.034798832737331e-06
C	1.6570784978984558	1.2190657619055727	-8.084798832737332e-06
C	3.028012067898456	0.9376534619055727	1.6505201167262666e-05
C	3.459385667898456	-0.41630433809442724	-1.0347988327373323e-06
C	2.559299947898456	-1.4796606880944272	8.485201167262669e-06
C	-1.530998452101544	1.3739984819055728	-1.1754798832737333e-05
C	-2.9228110521015442	1.2269216919055725	1.2135201167262667e-05
C	-3.483431662101544	-0.07887133809442726	-3.864798832737332e-06
C	-2.6906782621015446	-1.2245236680944274	2.745201167262668e-06
C	4.140948207898456	1.8520795819055726	-8.014798832737331e-06
C	5.341326427898456	1.2279129419055728	4.552011672626678e-07
S	5.213086907898456	-0.5207107480944273	1.2652011672626677e-06
C	-3.9418983121015443	2.2449406819055726	-6.424798832737333e-06
C	-5.197117862101544	1.7400440419055727	1.3052011672626678e-06
S	-5.239027682101543	-0.012765958094427265	1.0552011672626679e-06
H	-6.131154252101544	2.283337441905573	1.6152011672626678e-06
H	-3.1301336621015445	-2.215936968094427	-3.4947988327373324e-06
H	2.9006587978984557	-2.5089791480944275	1.752011672626678e-07
H	6.323677587898455	1.6779596119055726	-1.5947988327373322e-06
H	1.319636377898456	2.250832781905573	-1.2547988327373323e-06
H	-1.094788902101544	2.368050091905573	1.6452011672626677e-06
H	-3.7262814121015437	3.306856651905573	4.3520116726266775e-07
H	4.029094427898456	2.929880631905573	-1.5247988327373322e-06
C	0.010171374739847873	0.209514806642732	8.37619566934546
C	0.010179567269143298	0.20953876244966324	9.833332390505214
C	-0.05370172666561395	-1.1052605204241757	10.367683793704144
S	-0.11388041427002801	-2.3432895006585803	9.104765858445255
C	-0.05370963172151602	-1.1052810331659297	7.8418726714591145
C	0.063019908209957	1.2965364339976007	10.700719338415327
C	0.05258144824837884	1.0822583269272392	12.083697164677513
C	-0.012031382663013969	-0.2475947076504334	12.580286528006633
C	-0.06571879002443066	-1.3520857168033957	11.732879716897028
C	0.06302324931708782	1.2965295774780772	7.508879933494837
C	0.05258873808098544	1.0823183000929189	6.125847560098437
C	-0.012027851554375782	-0.24758035017071775	5.629274119225684
C	-0.06571354490918047	-1.3520960390893013	6.476705623095704
C	0.09956448842800043	2.0484893912181064	13.150932895709978
C	0.07212175039945058	1.4839944162666476	14.380194537914374
S	-0.012963486537009758	-0.26672655665358197	14.336988506478793
C	0.09956472397225428	2.0485269927417775	5.058544638319091
C	0.07211927367596113	1.4839609649913237	3.8293137066332044
S	-0.01296445442557857	-0.2667507983185269	3.8725388166197794
H	0.09625968969248229	1.980687310526249	2.870005688166792
H	-0.1148116316330281	-2.362480566689517	6.085893821442871
H	-0.1148127661771239	-2.362428307311143	12.123801688588008
H	0.09625914315653332	1.9806099370342702	15.339541303968875
H	0.11224331059820966	2.309511646131097	10.313590620523144
H	0.11223445489673578	2.3093891703778864	7.896321641820859
H	0.15155307849843533	3.1183952522788374	5.222359452003671
H	0.15155176381007204	3.118327823774574	12.986891977195786
