54
48b cofacial 3.5A
C	-0.7175337621015441	0.24488103190557275	1.1555201167262668e-05
C	0.7378863578984558	0.17417248190557277	4.535201167262667e-06
C	1.2077090878984558	-1.1665646280944273	-1.2934798832737331e-05
S	-0.11388782210154424	-2.343289128094427	-2.0347988327373324e-06
C	-1.315125432101544	-1.0439766580944272	-6.034798832737331e-06
C	1.6570784978984558	1.2190657619055727	-8.084798832737332e-06
C	3.028012067898456	0.9376534619055727	1.6505201167262666e-05
C	3.459385667898456	-0.41630433809442724	-1.0347988327373323e-06
C	2.559299947898456	-1.4796606880944272	8.485201167262669e-06
C	-1.530998452101544	1.3739984819055728	-1.1754798832737333e-05
C	-2.9228110521015442	1.2269216919055725	1.2135201167262667e-05
C	-3.483431662101544	-0.07887133809442726	-3.864798832737332e-06
C	-2.6906782621015446	-1.2245236680944274	2.745201167262668e-06
C	4.140948207898456	1.8520795819055726	-8.014798832737331e-06
C	5.341326427898456	1.2279129419055728	4.552011672626678e-07
S	5.213086907898456	-0.5207107480944273	1.2652011672626677e-06
C	-3.9418983121015443	2.2449406819055726	-6.424798832737333e-06
C	-5.197117862101544	1.7400440419055727	1.3052011672626678e-06
S	-5.239027682101543	-0.012765958094427265	1.0552011672626679e-06
H	-6.131154252101544	2.283337441905573	1.6152011672626678e-06
H	-3.1301336621015445	-2.215936968094427	-3.4947988327373324e-06
H	2.9006587978984557	-2.5089791480944275	1.752011672626678e-07
H	6.323677587898455	1.6779596119055726	-1.5947988327373322e-06
H	1.319636377898456	2.250832781905573	-1.2547988327373323e-06
H	-1.094788902101544	2.368050091905573	1.6452011672626677e-06
H	-3.7262814121015437	3.306856651905573	4.3520116726266775e-07
H	4.029094427898456	2.929880631905573	-1.5247988327373322e-06
C	-0.7175335332382147	0.24488101595998116	3.5000115552011595
C	0.7378865867617852	0.17417246595998118	3.500004535201159
C	1.2077093167617852	-1.1665646440400188	3.499987065201159
S	-0.11388759323821485	-2.3432891440400185	3.4999979652011595
C	-1.3151252032382146	-1.0439766740400187	3.4999939652011594
C	1.6570787267617852	1.2190657459599812	3.4999919152011594
C	3.0280122967617853	0.9376534459599811	3.500016505201159
C	3.459385896761785	-0.41630435404001886	3.499998965201159
C	2.559300176761785	-1.4796607040400187	3.5000084852011595
C	-1.5309982232382147	1.3739984659599813	3.4999882452011595
C	-2.922810823238215	1.226921675959981	3.500012135201159
C	-3.483431433238215	-0.07887135404001885	3.4999961352011595
C	-2.6906780332382154	-1.2245236840400189	3.5000027452011593
C	4.140948436761785	1.8520795659599811	3.4999919852011594
C	5.341326656761785	1.2279129259599812	3.5000004552011594
S	5.213087136761785	-0.5207107640400189	3.5000012652011594
C	-3.941898083238215	2.244940665959981	3.499993575201159
C	-5.197117633238215	1.7400440259599812	3.500001305201159
S	-5.239027453238214	-0.01276597404001887	3.5000010552011593
H	-6.1311540232382145	2.2833374259599815	3.5000016152011595
H	-3.1301334332382154	-2.2159369840400185	3.4999965052011595
H	2.900659026761785	-2.508979164040019	3.5000001752011594
H	6.323677816761784	1.6779595959599811	3.4999984052011595
H	1.3196366067617853	2.2508327659599816	3.499998745201159
H	-1.0947886732382146	2.3680500759599816	3.5000016452011593
H	-3.7262811832382146	3.3068566359599814	3.500000435201159
H	4.029094656761785	2.9298806159599815	3.4999984752011595
