54
51e PD long+short
C	-1.864480243658592	-0.6569114277103101	0.0022603428996356505
C	-3.0850185636585916	0.06785786228968993	-0.0021299371003643494
S	-2.845840673658592	1.8172899822896897	0.000528982899635651
C	-1.1249353536585922	1.5567034522896899	0.005739562899635651
C	-0.7143267536585922	0.2342342922896899	0.005772402899635652
S	0.15913035634140782	2.73177084228969	0.006419712899635652
C	1.298673426341408	1.41609821228969	0.005746222899635651
C	0.7374442563414079	0.15024640228968994	0.005774532899635651
S	3.038402736341408	1.47497818228969	0.0005403328996356508
C	3.0727489663414076	-0.2905929277103101	-0.002128237100364349
C	1.7761393163414079	-0.8680550477103101	0.0022540228996356508
C	4.235567386341408	-1.0583215277103102	-0.008354267100364349
C	4.120768436341407	-2.4413731377103103	-0.00950066710036435
C	2.8554258763414078	-3.04045994771031	-0.0037482571003643493
C	1.7017023363414079	-2.2707760177103102	0.0020396228996356507
C	-4.3296181636585915	-0.5584841477103101	-0.00836030710036435
C	-4.377564653658592	-1.9453067077103101	-0.009502547100364349
C	-3.191018613658592	-2.68824600771031	-0.003741257100364349
C	-1.954933273658592	-2.05895693771031	0.002051722899635651
H	-5.2425100636585915	0.027727732289689944	-0.012639407100364349
H	-5.337160343658592	-2.45110757771031	-0.014840457100364348
H	-3.235826173658592	-3.77233090771031	-0.003929387100364349
H	-1.0607481436585922	-2.6644092077103103	0.006620102899635652
H	0.7425398263414078	-2.76675411771031	0.006595432899635651
H	2.772521546341408	-4.12228389771031	-0.003940287100364349
H	5.014488846341408	-3.0561858977103102	-0.014840457100364348
H	5.210906956341408	-0.5831396777103101	-0.012628357100364349
C	1.1515873721858596	-3.369749908536506	3.4975467921789827
C	-0.06895094781413996	-2.644980618536506	3.4931565121789827
S	0.1702269421858597	-0.8955484985365061	3.4958154321789827
C	1.8911322621858595	-1.156135028536506	3.5010260121789827
C	2.3017408621858593	-2.4786041885365058	3.5010588521789825
S	3.175197972185859	0.018932361463494144	3.5017061621789827
C	4.314741042185859	-1.296740268536506	3.5010326721789826
C	3.753511872185859	-2.5625920785365057	3.5010609821789824
S	6.054470352185859	-1.237860298536506	3.4958267821789826
C	6.088816582185859	-3.003431408536506	3.4931582121789826
C	4.792206932185859	-3.5808935285365058	3.4975404721789825
C	7.25163500218586	-3.771160008536506	3.4869321821789825
C	7.136836052185859	-5.154211618536507	3.4857857821789824
C	5.871493492185859	-5.753298428536506	3.4915381921789828
C	4.71776995218586	-4.9836144985365065	3.4973260721789825
C	-1.3135505478141398	-3.271322628536506	3.486926142178983
C	-1.36149703781414	-4.658145188536506	3.4857839021789827
C	-0.17495099781414042	-5.4010844885365055	3.4915451921789824
C	1.0611343421858597	-4.771795418536506	3.4973381721789827
H	-2.22644244781414	-2.685110748536506	3.4826470421789826
H	-2.3210927278141407	-5.163946058536506	3.4804459921789825
H	-0.21975855781414017	-6.485169388536506	3.4913570621789827
H	1.9553194721858596	-5.377247688536506	3.5019065521789825
H	3.758607442185859	-5.479592598536506	3.5018818821789828
H	5.788589162185859	-6.835122378536506	3.4913461621789827
H	8.03055646218586	-5.769024378536506	3.4804459921789825
H	8.226974572185862	-3.295978158536506	3.4826580921789825
