54
51e PD short
C	-1.864480243658592	-0.6569114277103101	0.0022603428996356505
C	-3.0850185636585916	0.06785786228968993	-0.0021299371003643494
S	-2.845840673658592	1.8172899822896897	0.000528982899635651
C	-1.1249353536585922	1.5567034522896899	0.005739562899635651
C	-0.7143267536585922	0.2342342922896899	0.005772402899635652
S	0.15913035634140782	2.73177084228969	0.006419712899635652
C	1.298673426341408	1.41609821228969	0.005746222899635651
C	0.7374442563414079	0.15024640228968994	0.005774532899635651
S	3.038402736341408	1.47497818228969	0.0005403328996356508
C	3.0727489663414076	-0.2905929277103101	-0.002128237100364349
C	1.7761393163414079	-0.8680550477103101	0.0022540228996356508
C	4.235567386341408	-1.0583215277103102	-0.008354267100364349
C	4.120768436341407	-2.4413731377103103	-0.00950066710036435
C	2.8554258763414078	-3.04045994771031	-0.0037482571003643493
C	1.7017023363414079	-2.2707760177103102	0.0020396228996356507
C	-4.3296181636585915	-0.5584841477103101	-0.00836030710036435
C	-4.377564653658592	-1.9453067077103101	-0.009502547100364349
C	-3.191018613658592	-2.68824600771031	-0.003741257100364349
C	-1.954933273658592	-2.05895693771031	0.002051722899635651
H	-5.2425100636585915	0.027727732289689944	-0.012639407100364349
H	-5.337160343658592	-2.45110757771031	-0.014840457100364348
H	-3.235826173658592	-3.77233090771031	-0.003929387100364349
H	-1.0607481436585922	-2.6644092077103103	0.006620102899635652
H	0.7425398263414078	-2.76675411771031	0.006595432899635651
H	2.772521546341408	-4.12228389771031	-0.003940287100364349
H	5.014488846341408	-3.0561858977103102	-0.014840457100364348
H	5.210906956341408	-0.5831396777103101	-0.012628357100364349
C	-2.0110586903007412	-3.18600831049013	3.497868497498384
C	-3.2315970103007405	-2.46123902049013	3.493478217498384
S	-2.992419120300741	-0.7118069004901302	3.496137137498384
C	-1.271513800300741	-0.97239343049013	3.501347717498384
C	-0.860905200300741	-2.29486259049013	3.501380557498384
S	0.012551909699258988	0.20267395950987005	3.5020278674983842
C	1.1520949796992592	-1.11299867049013	3.501354377498384
C	0.5908658096992591	-2.37885048049013	3.501382687498384
S	2.891824289699259	-1.05411870049013	3.496148487498384
C	2.9261705196992587	-2.81968981049013	3.493479917498384
C	1.6295608696992592	-3.39715193049013	3.497862177498384
C	4.088988939699259	-3.5874184104901303	3.487253887498384
C	3.9741899896992585	-4.97047002049013	3.486107487498384
C	2.708847429699259	-5.5695568304901295	3.491859897498384
C	1.5551238896992592	-4.79987290049013	3.497647777498384
C	-4.4761966103007405	-3.08758103049013	3.487247847498384
C	-4.524143100300741	-4.47440359049013	3.486105607498384
C	-3.337597060300741	-5.21734289049013	3.491866897498384
C	-2.101511720300741	-4.58805382049013	3.497659877498384
H	-5.38908851030074	-2.50136915049013	3.482968747498384
H	-5.483738790300741	-4.98020446049013	3.480767697498384
H	-3.3824046203007407	-6.30142779049013	3.4916787674983842
H	-1.2073265903007409	-5.19350609049013	3.502228257498384
H	0.595961379699259	-5.2958510004901305	3.502203587498384
H	2.625943099699259	-6.65138078049013	3.491667867498384
H	4.867910399699259	-5.58528278049013	3.480767697498384
H	5.064328509699259	-3.11223656049013	3.482979797498384
