54
51e cofacial 3.5A
C	-1.864480243658592	-0.6569114277103101	0.0022603428996356505
C	-3.0850185636585916	0.06785786228968993	-0.0021299371003643494
S	-2.845840673658592	1.8172899822896897	0.000528982899635651
C	-1.1249353536585922	1.5567034522896899	0.005739562899635651
C	-0.7143267536585922	0.2342342922896899	0.005772402899635652
S	0.15913035634140782	2.73177084228969	0.006419712899635652
C	1.298673426341408	1.41609821228969	0.005746222899635651
C	0.7374442563414079	0.15024640228968994	0.005774532899635651
S	3.038402736341408	1.47497818228969	0.0005403328996356508
C	3.0727489663414076	-0.2905929277103101	-0.002128237100364349
C	1.7761393163414079	-0.8680550477103101	0.0022540228996356508
C	4.235567386341408	-1.0583215277103102	-0.008354267100364349
C	4.120768436341407	-2.4413731377103103	-0.00950066710036435
C	2.8554258763414078	-3.04045994771031	-0.0037482571003643493
C	1.7017023363414079	-2.2707760177103102	0.0020396228996356507
C	-4.3296181636585915	-0.5584841477103101	-0.00836030710036435
C	-4.377564653658592	-1.9453067077103101	-0.009502547100364349
C	-3.191018613658592	-2.68824600771031	-0.003741257100364349
C	-1.954933273658592	-2.05895693771031	0.002051722899635651
H	-5.2425100636585915	0.027727732289689944	-0.012639407100364349
H	-5.337160343658592	-2.45110757771031	-0.014840457100364348
H	-3.235826173658592	-3.77233090771031	-0.003929387100364349
H	-1.0607481436585922	-2.6644092077103103	0.006620102899635652
H	0.7425398263414078	-2.76675411771031	0.006595432899635651
H	2.772521546341408	-4.12228389771031	-0.003940287100364349
H	5.014488846341408	-3.0561858977103102	-0.014840457100364348
H	5.210906956341408	-0.5831396777103101	-0.012628357100364349
C	-1.864477763435883	-0.6629967282701446	3.50225505276863
C	-3.0850160834358826	0.0617725617298554	3.49786477276863
S	-2.845838193435883	1.8112046817298553	3.50052369276863
C	-1.124932873435883	1.5506181517298554	3.50573427276863
C	-0.714324273435883	0.22814899172985537	3.50576711276863
S	0.15913283656411698	2.7256855417298556	3.50641442276863
C	1.2986759065641171	1.4100129117298554	3.5057409327686297
C	0.7374467365641171	0.1441611017298554	3.50576924276863
S	3.038405216564117	1.4688928817298554	3.50053504276863
C	3.0727514465641166	-0.2966782282701446	3.49786647276863
C	1.776141796564117	-0.8741403482701445	3.50224873276863
C	4.235569866564117	-1.0644068282701447	3.49164044276863
C	4.120770916564116	-2.4474584382701448	3.49049404276863
C	2.8554283565641168	-3.0465452482701445	3.49624645276863
C	1.701704816564117	-2.2768613182701447	3.50203433276863
C	-4.3296156834358825	-0.5645694482701445	3.49163440276863
C	-4.377562173435883	-1.9513920082701446	3.49049216276863
C	-3.191016133435883	-2.6943313082701446	3.49625345276863
C	-1.9549307934358828	-2.0650422382701445	3.50204643276863
H	-5.2425075834358825	0.02164243172985542	3.48735530276863
H	-5.337157863435883	-2.4571928782701447	3.48515425276863
H	-3.235823693435883	-3.7784162082701447	3.49606532276863
H	-1.060745663435883	-2.670494508270145	3.50661481276863
H	0.742542306564117	-2.7728394182701446	3.50659014276863
H	2.772524026564117	-4.1283691982701445	3.49605442276863
H	5.014491326564117	-3.0622711982701447	3.48515425276863
H	5.210909436564117	-0.5892249782701445	3.48736635276863
