64
n10 PD short
C	-3.5906783938044047	-0.5631429798236882	-9.551625102469515e-07
C	-3.5287866938044052	0.8698127901763119	2.8648374897530483e-06
N	-2.340893613804405	1.5110273801763117	-7.635162510246952e-06
C	-1.251261263804405	0.7684936101763118	6.844837489753049e-06
C	-1.3128045938044048	-0.6586569598236882	5.444837489753049e-06
N	-2.462446693804405	-1.3044359598236883	8.154837489753049e-06
C	0.0648894661955951	1.5080421001763118	1.0784837489753049e-05
C	1.3126885161955952	0.6581267701763118	-3.482516251024695e-05
C	1.251331156195595	-0.7690320198236882	3.313483748975305e-05
C	-0.06491561380440486	-1.5086405998236883	-1.886516251024695e-05
N	2.462161646195595	1.304143250176312	2.733483748975305e-05
C	3.590506706195595	0.5631187601763118	-2.666516251024695e-05
C	3.528955156195595	-0.8698508098236881	1.857483748975305e-05
N	2.341152346195595	-1.511343319823688	-2.717516251024695e-05
O	0.11662508619559514	2.7119937701763117	-2.7951625102469517e-06
O	-0.11665232380440482	-2.7125842698236884	7.544837489753049e-06
C	4.855069256195595	1.2069465001763118	1.4534837489753049e-05
C	6.0012395561955945	0.45314813017631184	-6.515162510246951e-06
C	5.940338616195595	-0.9664196898236881	-3.0451625102469514e-06
C	4.733912066195595	-1.619450249823688	8.948374897530483e-07
C	-4.733404323804405	1.6199143801763118	-2.7451625102469518e-06
C	-5.940076303804405	0.9673885201763118	-1.6951625102469517e-06
C	-6.001413913804405	-0.4521592598236881	1.5448374897530485e-06
C	-4.855534963804405	-1.2064447398236882	-6.775162510246951e-06
H	-4.658542733804405	2.701184430176312	2.9848374897530484e-06
H	-6.863496063804405	1.5370170201763118	-1.1051625102469516e-06
H	-6.970523303804405	-0.9399861398236882	9.548374897530484e-07
H	-4.874186293804405	-2.290149149823688	1.2648374897530484e-06
H	4.659680906195595	-2.7007627298236883	1.4248374897530483e-06
H	6.863960426195595	-1.535714959823688	1.1948374897530484e-06
H	6.9701649161955945	0.9413503701763118	3.4948374897530486e-06
H	4.873091546195595	2.290660940176312	-6.115162510246952e-06
C	-3.683096318374579	-2.7087000651452597	3.49999850066996
C	-3.6212046183745796	-1.2757442951452598	3.50000232066996
N	-2.4333115383745794	-0.6345297051452602	3.49999182066996
C	-1.3436791883745798	-1.37706347514526	3.50000630066996
C	-1.4052225183745797	-2.80421404514526	3.50000490066996
N	-2.5548646183745793	-3.44999304514526	3.50000761066996
C	-0.027528458374579613	-0.6375149851452601	3.50001024066996
C	1.2202705916254204	-1.48743031514526	3.49996463066996
C	1.1589132316254203	-2.91458910514526	3.50003259066996
C	-0.15733353837457958	-3.65419768514526	3.49998059066996
N	2.3697437216254205	-0.8414138351452599	3.5000267906699603
C	3.4980887816254205	-1.5824383251452598	3.4999727906699603
C	3.4365372316254206	-3.01540789514526	3.50001803066996
N	2.2487344216254206	-3.65690040514526	3.4999722806699602
O	0.024207161625420425	0.5664366848547399	3.49999666066996
O	-0.20907024837457955	-4.858141355145261	3.50000700066996
C	4.76265133162542	-0.9386105851452601	3.50001399066996
C	5.90882163162542	-1.69240895514526	3.49999294066996
C	5.84792069162542	-3.11197677514526	3.49999641066996
C	4.6414941416254205	-3.7650073351452598	3.50000035066996
C	-4.825822248374579	-0.52564270514526	3.49999671066996
C	-6.0324942283745795	-1.1781685651452598	3.49999776066996
C	-6.093831838374579	-2.5977163451452596	3.5000010006699602
C	-4.947952888374579	-3.3520018251452597	3.49999268066996
H	-4.75096065837458	0.5556273448547401	3.50000244066996
H	-6.955913988374579	-0.60854006514526	3.49999835066996
H	-7.062941228374579	-3.0855432251452597	3.5000004106699603
H	-4.966604218374579	-4.43570623514526	3.50000072066996
H	4.56726298162542	-4.84631981514526	3.50000088066996
H	6.7715425016254205	-3.68127204514526	3.50000065066996
H	6.87774699162542	-1.20420671514526	3.50000295066996
H	4.780673621625421	0.14510385485474	3.49999334066996
