64
n10 cofacial 5.0A
C	-3.5906783938044047	-0.5631429798236882	-9.551625102469515e-07
C	-3.5287866938044052	0.8698127901763119	2.8648374897530483e-06
N	-2.340893613804405	1.5110273801763117	-7.635162510246952e-06
C	-1.251261263804405	0.7684936101763118	6.844837489753049e-06
C	-1.3128045938044048	-0.6586569598236882	5.444837489753049e-06
N	-2.462446693804405	-1.3044359598236883	8.154837489753049e-06
C	0.0648894661955951	1.5080421001763118	1.0784837489753049e-05
C	1.3126885161955952	0.6581267701763118	-3.482516251024695e-05
C	1.251331156195595	-0.7690320198236882	3.313483748975305e-05
C	-0.06491561380440486	-1.5086405998236883	-1.886516251024695e-05
N	2.462161646195595	1.304143250176312	2.733483748975305e-05
C	3.590506706195595	0.5631187601763118	-2.666516251024695e-05
C	3.528955156195595	-0.8698508098236881	1.857483748975305e-05
N	2.341152346195595	-1.511343319823688	-2.717516251024695e-05
O	0.11662508619559514	2.7119937701763117	-2.7951625102469517e-06
O	-0.11665232380440482	-2.7125842698236884	7.544837489753049e-06
C	4.855069256195595	1.2069465001763118	1.4534837489753049e-05
C	6.0012395561955945	0.45314813017631184	-6.515162510246951e-06
C	5.940338616195595	-0.9664196898236881	-3.0451625102469514e-06
C	4.733912066195595	-1.619450249823688	8.948374897530483e-07
C	-4.733404323804405	1.6199143801763118	-2.7451625102469518e-06
C	-5.940076303804405	0.9673885201763118	-1.6951625102469517e-06
C	-6.001413913804405	-0.4521592598236881	1.5448374897530485e-06
C	-4.855534963804405	-1.2064447398236882	-6.775162510246951e-06
H	-4.658542733804405	2.701184430176312	2.9848374897530484e-06
H	-6.863496063804405	1.5370170201763118	-1.1051625102469516e-06
H	-6.970523303804405	-0.9399861398236882	9.548374897530484e-07
H	-4.874186293804405	-2.290149149823688	1.2648374897530484e-06
H	4.659680906195595	-2.7007627298236883	1.4248374897530483e-06
H	6.863960426195595	-1.535714959823688	1.1948374897530484e-06
H	6.9701649161955945	0.9413503701763118	3.4948374897530486e-06
H	4.873091546195595	2.290660940176312	-6.115162510246952e-06
C	-3.5906782750802746	-0.5631442530643206	4.999999044837327
C	-3.528786575080275	0.8698115169356795	5.0000028648373265
N	-2.340893495080275	1.5110261069356792	4.999992364837326
C	-1.2512611450802749	0.7684923369356794	5.000006844837326
C	-1.3128044750802748	-0.6586582330643206	5.000005444837326
N	-2.462446575080275	-1.3044372330643208	5.000008154837326
C	0.06488958491972514	1.5080408269356793	5.000010784837326
C	1.3126886349197253	0.6581254969356795	4.999965174837326
C	1.2513312749197252	-0.7690332930643206	5.000033134837326
C	-0.06491549508027482	-1.5086418730643207	4.999981134837326
N	2.462161764919725	1.3041419769356795	5.000027334837326
C	3.590506824919725	0.5631174869356794	4.9999733348373265
C	3.528955274919725	-0.8698520830643205	5.000018574837326
N	2.341152464919725	-1.5113445930643206	4.999972824837326
O	0.11662520491972518	2.7119924969356792	4.999997204837326
O	-0.11665220508027478	-2.712585543064321	5.0000075448373265
C	4.855069374919725	1.2069452269356793	5.000014534837327
C	6.0012396749197245	0.4531468569356794	4.999993484837327
C	5.940338734919725	-0.9664209630643205	4.999996954837326
C	4.733912184919725	-1.6194515230643205	5.000000894837326
C	-4.733404205080275	1.6199131069356794	4.999997254837326
C	-5.940076185080275	0.9673872469356795	4.999998304837327
C	-6.001413795080275	-0.4521605330643205	5.0000015448373265
C	-4.855534845080275	-1.2064460130643206	4.9999932248373264
H	-4.658542615080275	2.7011831569356795	5.000002984837327
H	-6.863495945080275	1.5370157469356793	4.999998894837327
H	-6.970523185080275	-0.9399874130643205	5.0000009548373265
H	-4.874186175080275	-2.2901504230643206	5.000001264837326
H	4.659681024919725	-2.7007640030643207	5.000001424837326
H	6.863960544919725	-1.5357162330643206	5.000001194837326
H	6.970165034919725	0.9413490969356795	5.000003494837326
H	4.873091664919725	2.2906596669356794	4.999993884837326
