64
n10 cofacial 4.5A
C	-3.5906783938044047	-0.5631429798236882	-9.551625102469515e-07
C	-3.5287866938044052	0.8698127901763119	2.8648374897530483e-06
N	-2.340893613804405	1.5110273801763117	-7.635162510246952e-06
C	-1.251261263804405	0.7684936101763118	6.844837489753049e-06
C	-1.3128045938044048	-0.6586569598236882	5.444837489753049e-06
N	-2.462446693804405	-1.3044359598236883	8.154837489753049e-06
C	0.0648894661955951	1.5080421001763118	1.0784837489753049e-05
C	1.3126885161955952	0.6581267701763118	-3.482516251024695e-05
C	1.251331156195595	-0.7690320198236882	3.313483748975305e-05
C	-0.06491561380440486	-1.5086405998236883	-1.886516251024695e-05
N	2.462161646195595	1.304143250176312	2.733483748975305e-05
C	3.590506706195595	0.5631187601763118	-2.666516251024695e-05
C	3.528955156195595	-0.8698508098236881	1.857483748975305e-05
N	2.341152346195595	-1.511343319823688	-2.717516251024695e-05
O	0.11662508619559514	2.7119937701763117	-2.7951625102469517e-06
O	-0.11665232380440482	-2.7125842698236884	7.544837489753049e-06
C	4.855069256195595	1.2069465001763118	1.4534837489753049e-05
C	6.0012395561955945	0.45314813017631184	-6.515162510246951e-06
C	5.940338616195595	-0.9664196898236881	-3.0451625102469514e-06
C	4.733912066195595	-1.619450249823688	8.948374897530483e-07
C	-4.733404323804405	1.6199143801763118	-2.7451625102469518e-06
C	-5.940076303804405	0.9673885201763118	-1.6951625102469517e-06
C	-6.001413913804405	-0.4521592598236881	1.5448374897530485e-06
C	-4.855534963804405	-1.2064447398236882	-6.775162510246951e-06
H	-4.658542733804405	2.701184430176312	2.9848374897530484e-06
H	-6.863496063804405	1.5370170201763118	-1.1051625102469516e-06
H	-6.970523303804405	-0.9399861398236882	9.548374897530484e-07
H	-4.874186293804405	-2.290149149823688	1.2648374897530484e-06
H	4.659680906195595	-2.7007627298236883	1.4248374897530483e-06
H	6.863960426195595	-1.535714959823688	1.1948374897530484e-06
H	6.9701649161955945	0.9413503701763118	3.4948374897530486e-06
H	4.873091546195595	2.290660940176312	-6.115162510246952e-06
C	-3.5906782869526874	-0.5631441257402574	4.4999990448373435
C	-3.528786586952688	0.8698116442597427	4.500002864837343
N	-2.3408935069526877	1.5110262342597425	4.499992364837343
C	-1.251261156952688	0.7684924642597426	4.500006844837343
C	-1.3128044869526878	-0.6586581057402574	4.500005444837343
N	-2.4624465869526877	-1.3044371057402575	4.500008154837343
C	0.06488957304731215	1.5080409542597426	4.500010784837343
C	1.3126886230473123	0.6581256242597426	4.499965174837343
C	1.2513312630473121	-0.7690331657402574	4.500033134837343
C	-0.06491550695268782	-1.5086417457402574	4.499981134837343
N	2.462161753047312	1.3041421042597428	4.500027334837343
C	3.590506813047312	0.5631176142597426	4.499973334837343
C	3.528955263047312	-0.8698519557402573	4.500018574837343
N	2.3411524530473122	-1.5113444657402573	4.499972824837343
O	0.11662519304731218	2.7119926242597425	4.499997204837343
O	-0.11665221695268778	-2.7125854157402576	4.500007544837343
C	4.855069363047312	1.2069453542597426	4.5000145348373435
C	6.001239663047311	0.45314698425974265	4.4999934848373435
C	5.9403387230473115	-0.9664208357402573	4.499996954837343
C	4.733912173047312	-1.6194513957402572	4.500000894837343
C	-4.733404216952688	1.6199132342597427	4.499997254837343
C	-5.940076196952688	0.9673873742597426	4.4999983048373435
C	-6.001413806952688	-0.4521604057402573	4.500001544837343
C	-4.855534856952688	-1.2064458857402574	4.499993224837343
H	-4.658542626952689	2.7011832842597427	4.5000029848373435
H	-6.863495956952688	1.5370158742597426	4.4999988948373435
H	-6.970523196952688	-0.9399872857402574	4.500000954837343
H	-4.874186186952688	-2.2901502957402573	4.500001264837343
H	4.659681013047312	-2.7007638757402574	4.500001424837343
H	6.863960533047312	-1.5357161057402573	4.500001194837343
H	6.970165023047311	0.9413492242597427	4.500003494837343
H	4.873091653047312	2.2906597942597426	4.499993884837343
