64
n10 TS45.0
C	-3.5906783938044047	-0.5631429798236882	-9.551625102469515e-07
C	-3.5287866938044052	0.8698127901763119	2.8648374897530483e-06
N	-2.340893613804405	1.5110273801763117	-7.635162510246952e-06
C	-1.251261263804405	0.7684936101763118	6.844837489753049e-06
C	-1.3128045938044048	-0.6586569598236882	5.444837489753049e-06
N	-2.462446693804405	-1.3044359598236883	8.154837489753049e-06
C	0.0648894661955951	1.5080421001763118	1.0784837489753049e-05
C	1.3126885161955952	0.6581267701763118	-3.482516251024695e-05
C	1.251331156195595	-0.7690320198236882	3.313483748975305e-05
C	-0.06491561380440486	-1.5086405998236883	-1.886516251024695e-05
N	2.462161646195595	1.304143250176312	2.733483748975305e-05
C	3.590506706195595	0.5631187601763118	-2.666516251024695e-05
C	3.528955156195595	-0.8698508098236881	1.857483748975305e-05
N	2.341152346195595	-1.511343319823688	-2.717516251024695e-05
O	0.11662508619559514	2.7119937701763117	-2.7951625102469517e-06
O	-0.11665232380440482	-2.7125842698236884	7.544837489753049e-06
C	4.855069256195595	1.2069465001763118	1.4534837489753049e-05
C	6.0012395561955945	0.45314813017631184	-6.515162510246951e-06
C	5.940338616195595	-0.9664196898236881	-3.0451625102469514e-06
C	4.733912066195595	-1.619450249823688	8.948374897530483e-07
C	-4.733404323804405	1.6199143801763118	-2.7451625102469518e-06
C	-5.940076303804405	0.9673885201763118	-1.6951625102469517e-06
C	-6.001413913804405	-0.4521592598236881	1.5448374897530485e-06
C	-4.855534963804405	-1.2064447398236882	-6.775162510246951e-06
H	-4.658542733804405	2.701184430176312	2.9848374897530484e-06
H	-6.863496063804405	1.5370170201763118	-1.1051625102469516e-06
H	-6.970523303804405	-0.9399861398236882	9.548374897530484e-07
H	-4.874186293804405	-2.290149149823688	1.2648374897530484e-06
H	4.659680906195595	-2.7007627298236883	1.4248374897530483e-06
H	6.863960426195595	-1.535714959823688	1.1948374897530484e-06
H	6.9701649161955945	0.9413503701763118	3.4948374897530486e-06
H	4.873091546195595	2.290660940176312	-6.115162510246952e-06
C	-2.5480314808744473	-0.6080553574189062	4.9241002802680125
C	-2.4861914398314946	0.8249026377168116	4.9242220185351675
N	-1.6374976524584381	1.4807277407733725	5.743891713916321
C	-0.8757811010451507	0.7523184638520489	6.536269703618591
C	-0.9373032234070612	-0.6748330196364479	6.536219132452205
N	-1.7589807113297988	-1.334738615275886	5.743705293061692
C	0.06490222205574453	1.5080396628544885	7.443565172677325
C	0.9372355138078414	0.6742969708187608	8.350905401592671
C	0.8757958899635738	-0.7528582757518963	8.351035504311225
C	-0.06492220040735662	-1.5086422040118763	7.443640032600112
N	1.7587505932936587	1.3344397638613783	9.143338515400238
C	2.5479295471983545	0.6080243574347746	9.962970815972955
C	2.4862953807284254	-0.8249416539585722	9.963124487847036
N	1.637701710927662	-1.4810451012134294	9.143487246137372
O	0.11668377831362838	2.7119893542103712	7.44346836061212
O	-0.11671349103481819	-2.712583523017684	7.443744903375086
C	3.450874807654373	1.2674282329227335	10.83676083020116
C	4.252483640149501	0.5284713438086596	11.66939780713438
C	4.191508153263081	-0.8910932651913755	11.669573756043844
C	3.3295550071130955	-1.5589615128727607	10.837165977106457
C	-3.3291881981886244	1.5594279379530596	4.050388465407893
C	-4.191306625379901	0.8920609379711217	3.217789900600512
C	-4.252590706597664	-0.5274891477009999	3.2176565907914085
C	-3.4512031749758214	-1.2669361640722225	4.0501115671125945
H	-3.262600131660844	2.6410543578698777	4.070375857713627
H	-4.83759100192783	1.4497522369574478	2.5481051980456053
H	-4.944522953030361	-1.027255027470978	2.5478716205200582
H	-3.4780544793674086	-2.3502873721729536	4.069917823397336
H	3.2634081071665877	-2.6406222105416566	10.817629670779978
H	4.837936294516574	-1.448448823621503	12.339394472394588
H	4.944283730010445	1.0286103492114185	12.339048007937365
H	3.4772900070541666	2.3507811606239777	10.816500965700325
