40
140c_H_capped PD long+short
C	-1.2258267185926568	-0.6022321170087255	5.913431006884044e-05
C	-1.1118632085926567	0.7916351629912745	-6.707568993115956e-05
C	0.11711181140734328	1.4396889429912747	4.154431006884044e-05
C	1.2258270714073434	0.6022330529912746	-5.978568993115956e-05
C	1.1118631414073432	-0.7916341370087254	6.098431006884045e-05
C	-0.11711164859265677	-1.4396879270087255	-4.491568993115956e-05
C	-2.4905549185926565	1.3799772529912744	3.691431006884044e-05
N	-3.3487446885926566	0.27361101299127455	2.054310068840446e-06
C	-2.682609678592657	-0.9578963570087256	-3.7175689931159555e-05
C	2.6826106114073434	0.9578961529912745	3.3464310068840446e-05
N	3.348744641407343	-0.27361191700872545	1.4243100688404464e-06
C	2.490554001407343	-1.3799772870087255	-3.2515689931159556e-05
O	3.195432591407343	2.0464300429912745	-1.1945689931159553e-05
O	-2.818160588592657	2.5377835929912744	-7.775689931159554e-06
O	-3.1954305285926567	-2.0464307670087254	1.1154310068840446e-05
O	2.818158211407343	-2.5377840470087256	1.2814310068840447e-05
H	-4.354850978592657	0.3555287329912745	-1.3156899311595536e-06
H	4.354850811407343	-0.3555311170087255	-2.275689931159554e-06
H	0.20353670140734326	2.5202786429912747	-3.155689931159554e-06
H	-0.2035364185926568	-2.5202776470087254	3.3243100688404466e-06
C	1.3527069134620584	-2.6322684942583834	3.500060044222339
C	1.4666704234620584	-1.2384012142583833	3.4999338342223387
C	2.695645443462058	-0.5903474342583832	3.500042454222339
C	3.8043607034620583	-1.4278033242583834	3.499941124222339
C	3.690396773462058	-2.8216705142583836	3.500061894222339
C	2.461421983462058	-3.4697243042583836	3.499955994222339
C	0.08797871346205854	-0.6500591242583835	3.500037824222339
N	-0.7702110565379415	-1.7564253642583834	3.500002964222339
C	-0.10407604653794189	-2.9879327342583837	3.499963734222339
C	5.261144243462058	-1.0721402242583833	3.5000343742223388
N	5.927278273462059	-2.303648294258384	3.500002334222339
C	5.0690876334620585	-3.4100136642583836	3.4999683942223387
O	5.773966223462058	0.016393665741616548	3.499988964222339
O	-0.23962695653794197	0.5077472157416165	3.499993134222339
O	-0.6168968965379417	-4.076467144258384	3.500012064222339
O	5.396691843462058	-4.567820424258384	3.500013724222339
H	-1.7763173465379414	-1.6745076442583835	3.4999995942223388
H	6.9333844434620575	-2.3855674942583835	3.499998634222339
H	2.782070333462058	0.4902422657416167	3.499997754222339
H	2.3749972134620583	-4.550314024258384	3.500004234222339
