40
140c_H_capped TS90.0
C	-1.2258267185926568	-0.6022321170087255	5.913431006884044e-05
C	-1.1118632085926567	0.7916351629912745	-6.707568993115956e-05
C	0.11711181140734328	1.4396889429912747	4.154431006884044e-05
C	1.2258270714073434	0.6022330529912746	-5.978568993115956e-05
C	1.1118631414073432	-0.7916341370087254	6.098431006884045e-05
C	-0.11711164859265677	-1.4396879270087255	-4.491568993115956e-05
C	-2.4905549185926565	1.3799772529912744	3.691431006884044e-05
N	-3.3487446885926566	0.27361101299127455	2.054310068840446e-06
C	-2.682609678592657	-0.9578963570087256	-3.7175689931159555e-05
C	2.6826106114073434	0.9578961529912745	3.3464310068840446e-05
N	3.348744641407343	-0.27361191700872545	1.4243100688404464e-06
C	2.490554001407343	-1.3799772870087255	-3.2515689931159556e-05
O	3.195432591407343	2.0464300429912745	-1.1945689931159553e-05
O	-2.818160588592657	2.5377835929912744	-7.775689931159554e-06
O	-3.1954305285926567	-2.0464307670087254	1.1154310068840446e-05
O	2.818158211407343	-2.5377840470087256	1.2814310068840447e-05
H	-4.354850978592657	0.3555287329912745	-1.3156899311595536e-06
H	4.354850811407343	-0.3555311170087255	-2.275689931159554e-06
H	0.20353670140734326	2.5202786429912747	-3.155689931159554e-06
H	-0.2035364185926568	-2.5202776470087254	3.3243100688404466e-06
C	-0.056798544654740435	-0.6973468084548489	6.066389503817724
C	0.05674165659395799	0.6965549141905103	6.066939141686547
C	0.11709748234794864	1.4396934321559973	7.2393109388431505
C	0.056799387982523056	0.6973543511655772	8.412289512547941
C	-0.05673538667156752	-0.6965477571831444	8.411739448763777
C	-0.11709392276231373	-1.4396860459105347	7.239367881660571
C	0.09512593670744278	1.1695965708978395	4.645075753395686
N	9.017938259779285e-05	0.0011362803138828324	3.8794356984627183
C	-0.09503129782439938	-1.168431431253474	4.6432481938331875
C	0.09503510274280676	1.1684376401888144	9.835431493072697
N	-9.360380780857984e-05	-0.001130262907100554	10.599243068439002
C	-0.09513021350288953	-1.1695896849263485	9.833602075817211
O	0.18643812982109476	2.291260296794631	10.258287477262707
O	0.1866002670182528	2.2933044533276914	4.224654488689977
O	-0.18643726988450438	-2.291254276300945	4.220393378091654
O	-0.18660522525582113	-2.2932980507041747	10.254021919392606
H	9.805254859596565e-05	0.001191489295685912	2.8700000261542247
H	-9.455067649855389e-05	-0.0011875252046181725	11.608678741166358
H	0.2050534143292869	2.5201585589168696	7.2378185452625425
H	-0.2050533839112836	-2.5201508957600147	7.240860396467864
