40
140c_H_capped PD long
C	-1.2258267185926568	-0.6022321170087255	5.913431006884044e-05
C	-1.1118632085926567	0.7916351629912745	-6.707568993115956e-05
C	0.11711181140734328	1.4396889429912747	4.154431006884044e-05
C	1.2258270714073434	0.6022330529912746	-5.978568993115956e-05
C	1.1118631414073432	-0.7916341370087254	6.098431006884045e-05
C	-0.11711164859265677	-1.4396879270087255	-4.491568993115956e-05
C	-2.4905549185926565	1.3799772529912744	3.691431006884044e-05
N	-3.3487446885926566	0.27361101299127455	2.054310068840446e-06
C	-2.682609678592657	-0.9578963570087256	-3.7175689931159555e-05
C	2.6826106114073434	0.9578961529912745	3.3464310068840446e-05
N	3.348744641407343	-0.27361191700872545	1.4243100688404464e-06
C	2.490554001407343	-1.3799772870087255	-3.2515689931159556e-05
O	3.195432591407343	2.0464300429912745	-1.1945689931159553e-05
O	-2.818160588592657	2.5377835929912744	-7.775689931159554e-06
O	-3.1954305285926567	-2.0464307670087254	1.1154310068840446e-05
O	2.818158211407343	-2.5377840470087256	1.2814310068840447e-05
H	-4.354850978592657	0.3555287329912745	-1.3156899311595536e-06
H	4.354850811407343	-0.3555311170087255	-2.275689931159554e-06
H	0.20353670140734326	2.5202786429912747	-3.155689931159554e-06
H	-0.2035364185926568	-2.5202776470087254	3.3243100688404466e-06
C	1.4998356715076646	-0.8240028623252793	3.500059214112939
C	1.6137991815076647	0.5698644176747207	3.4999330041129393
C	2.8427742015076642	1.2179181976747209	3.500041624112939
C	3.9514894615076646	0.3804623076747208	3.499940294112939
C	3.8375255315076644	-1.0134048823252793	3.500061064112939
C	2.6085507415076643	-1.6614586723252793	3.499955164112939
C	0.23510747150766476	1.1582065076747206	3.5000369941129392
N	-0.6230822984923353	0.05184026767472072	3.5000021341129393
C	0.04305271150766433	-1.1796671023252794	3.499962904112939
C	5.4082730015076645	0.7361254076747208	3.5000335441129393
N	6.074407031507664	-0.4953826623252793	3.500001504112939
C	5.216216391507664	-1.6017480323252793	3.4999675641129393
O	5.921094981507664	1.8246592976747207	3.499988134112939
O	-0.09249819849233576	2.3160128476747204	3.499992304112939
O	-0.46976813849233545	-2.2682015123252794	3.500011234112939
O	5.543820601507664	-2.7595547923252797	3.500012894112939
H	-1.6291885884923352	0.1337579876747207	3.4999987641129393
H	7.080513201507665	-0.5773018623252792	3.4999978041129394
H	2.929199091507664	2.2985078976747206	3.499996924112939
H	2.5221259715076645	-2.7420483923252794	3.500003404112939
