40
140c_H_capped TL90.0
C	-1.2258267185926568	-0.6022321170087255	5.913431006884044e-05
C	-1.1118632085926567	0.7916351629912745	-6.707568993115956e-05
C	0.11711181140734328	1.4396889429912747	4.154431006884044e-05
C	1.2258270714073434	0.6022330529912746	-5.978568993115956e-05
C	1.1118631414073432	-0.7916341370087254	6.098431006884045e-05
C	-0.11711164859265677	-1.4396879270087255	-4.491568993115956e-05
C	-2.4905549185926565	1.3799772529912744	3.691431006884044e-05
N	-3.3487446885926566	0.27361101299127455	2.054310068840446e-06
C	-2.682609678592657	-0.9578963570087256	-3.7175689931159555e-05
C	2.6826106114073434	0.9578961529912745	3.3464310068840446e-05
N	3.348744641407343	-0.27361191700872545	1.4243100688404464e-06
C	2.490554001407343	-1.3799772870087255	-3.2515689931159556e-05
O	3.195432591407343	2.0464300429912745	-1.1945689931159553e-05
O	-2.818160588592657	2.5377835929912744	-7.775689931159554e-06
O	-3.1954305285926567	-2.0464307670087254	1.1154310068840446e-05
O	2.818158211407343	-2.5377840470087256	1.2814310068840447e-05
H	-4.354850978592657	0.3555287329912745	-1.3156899311595536e-06
H	4.354850811407343	-0.3555311170087255	-2.275689931159554e-06
H	0.20353670140734326	2.5202786429912747	-3.155689931159554e-06
H	-0.2035364185926568	-2.5202776470087254	3.3243100688404466e-06
C	-1.1690916011744608	0.09506079469114631	-6.0981414834019
C	-1.1685329413700194	0.09514196666989704	-4.699623205686011
C	-3.113349743759557e-05	-4.162668429839759e-05	-3.9540382528407396
C	1.1690918422471843	-0.09506511726998147	-4.698822724713833
C	1.1685331990955026	-0.09514083262646714	-6.097340946786734
C	3.1399935975708405e-05	4.003103018996856e-05	-6.842925890946848
C	-2.5857212985661144	0.21034651460909998	-4.225026187928662
N	-3.348837200528604	0.2724720656524076	-5.39734460697664
C	-2.5875378317001365	0.21056865083588228	-6.570774406200454
C	2.587538989259459	-0.2105699778720496	-4.226190891124368
N	3.3488368580295176	-0.27248048439732825	-5.399621467517227
C	2.585719946858234	-0.21035577428047264	-6.571939089984819
O	3.009006355381511	-0.24481691701427452	-3.0996542422019946
O	-3.0047536954118717	0.24448573133894377	-3.0976010852134905
O	-3.0090042700243904	0.2448125848387329	-7.69731148177091
O	3.0047508753525034	-0.244495513653536	-7.699364729717658
H	-4.354947771371184	0.3543371725707347	-5.397288508942503
H	4.354948002641537	-0.3543385446363804	-5.399679050408201
H	-0.0015145236517406953	0.000123916393332535	-2.869998984407704
H	0.0015146238358916067	-0.00012905021863341185	-7.926965169582417
