40
n04 TS45.0
C	-1.2065292057935917	-0.6526969292527705	2.9388847915091514e-06
C	-1.1441978257935919	0.7566757807472295	-4.2711152084908486e-06
C	0.06385498420640834	1.4432429907472295	5.758884791509152e-06
C	1.2064983242064082	0.6525861507472297	-5.621115208490848e-06
C	1.1442079042064084	-0.7567887692527706	3.7488847915091513e-06
C	-0.06386545579359171	-1.4433607492527707	-3.0311152084908486e-06
C	2.625993704206408	1.0482895607472296	6.178884791509151e-06
C	2.5233865442064083	-1.2760983692527703	-1.4511152084908485e-06
N	3.3205127142064086	-0.14681955925277057	-9.711152084908484e-07
S	3.2955668742064086	2.5479582407472297	-2.8211152084908485e-06
S	3.0583549042064084	-2.8289013192527706	1.0988847915091515e-06
C	-2.5233112257935915	1.2760804607472296	2.6388847915091513e-06
N	-3.3205186057935916	0.1468758907472294	-2.9511152084908485e-06
C	-2.6260797457935916	-1.0483001292527705	2.3988847915091515e-06
S	-3.2958202457935912	-2.547894889252771	-6.111520849084857e-08
S	-3.0580827457935915	2.8289504007472295	-1.1152084908485591e-09
H	0.11186790420640835	2.5258672307472296	-1.4111520849084854e-07
H	-0.1118817957935917	-2.52598732925277	-2.3111520849084858e-07
H	-4.330127865793592	0.1915688907472295	4.4888479150915145e-07
H	4.330126534206408	-0.19139872925277057	4.988847915091514e-07
C	-0.8622897115303128	-0.6679427988073292	4.780783207195478
C	-0.7999266897485194	0.7414285097270066	4.780713408270226
C	0.06387034577242523	1.4432433935959281	5.612624867442392
C	0.8622677977885461	0.6678337895835338	6.44453441531052
C	0.7999322081211656	-0.7415391297785711	6.444634745459671
C	-0.0638817278322462	-1.443358945294301	5.61271121681601
C	1.8719314760934471	1.0816893428208625	7.434913716605057
C	1.7692298006931235	-1.2426944009281569	7.435150647878527
N	2.347960740709492	-0.10374249467546069	7.962919362302976
S	2.365197839250217	2.5891669512187483	7.860981709999159
S	2.1277102865143647	-2.787680402754195	7.861645833294796
C	-1.7691780902235306	1.2426797045399618	3.790241826603683
N	-2.347961929984282	0.10380078437985724	3.262409808141982
C	-1.8719990822752777	-1.0816985613833396	3.790369766742566
S	-2.3653748090104245	-2.5891048172082236	3.3641731528020866
S	-2.127518345367214	2.7877352036892242	3.363883532140133
H	0.11186911668345925	2.5258682602853444	5.612664541961952
H	-0.11188075942168092	-2.5259862919142484	5.6126670075427265
H	-3.061866200651313	0.13539650737064002	2.5478115120690252
H	3.061866271925722	-0.1352242415298345	8.6775207617201
