40
n04 cofacial 3.5A
C	-1.2065292057935917	-0.6526969292527705	2.9388847915091514e-06
C	-1.1441978257935919	0.7566757807472295	-4.2711152084908486e-06
C	0.06385498420640834	1.4432429907472295	5.758884791509152e-06
C	1.2064983242064082	0.6525861507472297	-5.621115208490848e-06
C	1.1442079042064084	-0.7567887692527706	3.7488847915091513e-06
C	-0.06386545579359171	-1.4433607492527707	-3.0311152084908486e-06
C	2.625993704206408	1.0482895607472296	6.178884791509151e-06
C	2.5233865442064083	-1.2760983692527703	-1.4511152084908485e-06
N	3.3205127142064086	-0.14681955925277057	-9.711152084908484e-07
S	3.2955668742064086	2.5479582407472297	-2.8211152084908485e-06
S	3.0583549042064084	-2.8289013192527706	1.0988847915091515e-06
C	-2.5233112257935915	1.2760804607472296	2.6388847915091513e-06
N	-3.3205186057935916	0.1468758907472294	-2.9511152084908485e-06
C	-2.6260797457935916	-1.0483001292527705	2.3988847915091515e-06
S	-3.2958202457935912	-2.547894889252771	-6.111520849084857e-08
S	-3.0580827457935915	2.8289504007472295	-1.1152084908485591e-09
H	0.11186790420640835	2.5258672307472296	-1.4111520849084854e-07
H	-0.1118817957935917	-2.52598732925277	-2.3111520849084858e-07
H	-4.330127865793592	0.1915688907472295	4.4888479150915145e-07
H	4.330126534206408	-0.19139872925277057	4.988847915091514e-07
C	-1.2065293679149667	-0.6526962465747486	3.500002938884721
C	-1.1441979879149669	0.7566764634252514	3.4999957288847208
C	0.06385482208503339	1.4432436734252514	3.500005758884721
C	1.2064981620850332	0.6525868334252516	3.499994378884721
C	1.1442077420850334	-0.7567880865747487	3.500003748884721
C	-0.06386561791496666	-1.4433600665747488	3.499996968884721
C	2.625993542085033	1.0482902434252515	3.5000061788847208
C	2.5233863820850333	-1.2760976865747484	3.499998548884721
N	3.3205125520850336	-0.14681887657474874	3.4999990288847207
S	3.2955667120850336	2.5479589234252513	3.499997178884721
S	3.0583547420850334	-2.828900636574749	3.500001098884721
C	-2.5233113879149665	1.2760811434252515	3.500002638884721
N	-3.3205187679149666	0.14687657342525123	3.4999970488847207
C	-2.6260799079149666	-1.0482994465747486	3.500002398884721
S	-3.295820407914966	-2.547894206574749	3.499999938884721
S	-3.0580829079149665	2.828951083425251	3.499999998884721
H	0.1118677420850334	2.5258679134252513	3.499999858884721
H	-0.11188195791496665	-2.5259866465747485	3.499999768884721
H	-4.330128027914967	0.19156957342525133	3.500000448884721
H	4.330126372085033	-0.19139804657474874	3.500000498884721
