40
n04 cofacial 4.5A
C	-1.2065292057935917	-0.6526969292527705	2.9388847915091514e-06
C	-1.1441978257935919	0.7566757807472295	-4.2711152084908486e-06
C	0.06385498420640834	1.4432429907472295	5.758884791509152e-06
C	1.2064983242064082	0.6525861507472297	-5.621115208490848e-06
C	1.1442079042064084	-0.7567887692527706	3.7488847915091513e-06
C	-0.06386545579359171	-1.4433607492527707	-3.0311152084908486e-06
C	2.625993704206408	1.0482895607472296	6.178884791509151e-06
C	2.5233865442064083	-1.2760983692527703	-1.4511152084908485e-06
N	3.3205127142064086	-0.14681955925277057	-9.711152084908484e-07
S	3.2955668742064086	2.5479582407472297	-2.8211152084908485e-06
S	3.0583549042064084	-2.8289013192527706	1.0988847915091515e-06
C	-2.5233112257935915	1.2760804607472296	2.6388847915091513e-06
N	-3.3205186057935916	0.1468758907472294	-2.9511152084908485e-06
C	-2.6260797457935916	-1.0483001292527705	2.3988847915091515e-06
S	-3.2958202457935912	-2.547894889252771	-6.111520849084857e-08
S	-3.0580827457935915	2.8289504007472295	-1.1152084908485591e-09
H	0.11186790420640835	2.5258672307472296	-1.4111520849084854e-07
H	-0.1118817957935917	-2.52598732925277	-2.3111520849084858e-07
H	-4.330127865793592	0.1915688907472295	4.4888479150915145e-07
H	4.330126534206408	-0.19139872925277057	4.988847915091514e-07
C	-1.2065294142353595	-0.6526960515238852	4.500002938884701
C	-1.1441980342353597	0.7566766584761148	4.499995728884701
C	0.06385477576464053	1.4432438684761146	4.500005758884701
C	1.2064981157646404	0.6525870284761149	4.4999943788847006
C	1.1442076957646405	-0.7567878915238854	4.500003748884701
C	-0.06386566423535951	-1.4433598715238856	4.499996968884701
C	2.6259934957646403	1.0482904384761147	4.500006178884701
C	2.5233863357646404	-1.2760974915238852	4.499998548884701
N	3.3205125057646407	-0.14681868152388533	4.499999028884701
S	3.2955666657646407	2.547959118476115	4.499997178884701
S	3.0583546957646406	-2.8289004415238854	4.500001098884701
C	-2.5233114342353593	1.2760813384761147	4.500002638884701
N	-3.3205188142353594	0.14687676847611464	4.499997048884701
C	-2.6260799542353594	-1.0482992515238854	4.500002398884701
S	-3.295820454235359	-2.5478940115238857	4.4999999388847005
S	-3.0580829542353594	2.8289512784761146	4.499999998884701
H	0.11186769576464055	2.5258681084761148	4.499999858884701
H	-0.1118820042353595	-2.525986451523885	4.499999768884701
H	-4.33012807423536	0.19156976847611473	4.500000448884701
H	4.33012632576464	-0.19139785152388533	4.500000498884701
