60
56a_H_capped_F TS90.0
C	-3.6562230973936356	-0.58963058566184	-2.3900537474952357e-05
C	-3.6321281473936353	0.85478845433816	2.8149462525047645e-05
C	-2.4186488973936355	1.50178414433816	-1.8660537474952356e-05
C	-1.2007902273936355	0.7672673743381601	1.8429462525047643e-05
C	-1.2462761073936357	-0.68131212566184	-2.2140537474952357e-05
C	-2.5132683373936358	-1.3359781356618399	1.8039462525047645e-05
C	0.0475573526063644	1.4014250343381602	2.4894625250476443e-06
C	1.2463458326063643	0.6825803243381601	-2.4940537474952357e-05
C	1.2006865326063643	-0.76599604566184	2.1079462525047643e-05
C	-0.04757311739363557	-1.4001393556618398	3.946252504764424e-08
C	2.5136829626063646	1.3367243543381602	2.0079462525047642e-05
C	3.6564058026063644	0.5898881243381601	-2.5020537474952356e-05
C	3.6318328426063644	-0.85450477566184	2.9659462525047645e-05
C	2.418174932606364	-1.50101539566184	-1.9810537474952357e-05
S	5.318946692606364	1.2079888043381601	2.9794625250476443e-06
C	5.903277322606364	-0.45739349566183995	3.2794625250476443e-06
C	4.962455072606364	-1.4165239256618398	-1.2020537474952357e-05
H	-0.08528975739363576	-2.48637229566184	-6.805374749523558e-07
H	5.189817242606365	-2.47440192566184	8.946252504764424e-08
H	2.548572862606364	2.42156072433816	-2.080537474952356e-06
H	-2.3795856373936357	2.58707517433816	-3.2053747495235576e-07
H	-2.5475135373936357	-2.42083332566184	-7.605374749523557e-07
F	7.222789962606365	-0.63746159566184	-4.805374749523558e-07
H	0.08529234260636431	2.48764713433816	-2.2053747495235576e-07
H	2.378512662606364	-2.5862899456618402	-2.5053747495235574e-07
S	-5.318336307393636	-1.2086455156618399	3.0994625250476444e-06
C	-5.903444657393635	0.45639229433816	3.579462525047644e-06
C	-4.963134057393635	1.4160647943381601	-1.2060537474952357e-05
H	-5.191305607393636	2.47377493433816	3.1946252504764426e-07
F	-7.223065247393636	0.6356600943381601	-8.905374749523558e-07
C	-0.005356962783450901	-0.6212525525776535	6.807061046771838
C	0.007102646672282705	0.823267265748175	6.818644873227397
C	0.012843995553801276	1.4807236551053466	8.026474930916294
C	0.006536748501025745	0.7568098740624382	9.250649625611397
C	-0.00597197814604651	-0.6920552542100848	9.217711705533405
C	-0.011777142784864686	-1.3576449080838113	7.956437108205808
C	0.012138656343244219	1.4017314496806448	10.49345789659018
C	0.006030229179097187	0.6933228320581081	11.698427379699112
C	-0.006565070120828987	-0.7555399184279424	11.665316019016563
C	-0.012129868471322794	-1.400446703872016	10.42259555045331
C	0.011745702112596845	1.3583942701096883	12.96005138499753
C	0.0054083090806144405	0.621510508795033	14.109199767623819
C	-0.007157835835894304	-0.8229863870124978	14.097137722696898
C	-0.012798720628010251	-1.4799601239812956	12.889124810482112
S	0.01085828261996755	1.2539639137332939	15.76632488380934
C	-0.0035217564714029267	-0.40623271451834403	16.365057595732782
C	-0.011883886462902973	-1.3734395532931325	15.432577733274389
H	-0.02153964330586628	-2.4869248209142487	10.394288268697895
H	-0.021041029016780358	-2.4292689652507495	15.669093734769515
H	0.02116604860341609	2.44345124206315	12.985544128573485
H	0.022228094354840806	2.5662717481517294	8.056136940114905
H	-0.021156645446579556	-2.4427154698011035	7.931589203449981
F	-0.0049785506353215055	-0.5748593717169279	17.686080326803037
H	0.021551768542391214	2.48819885675306	10.521783621543365
H	-0.02222062021181739	-2.5654965978817943	12.858863671016554
S	-0.010869820330120943	-1.2546159585417225	5.150371512931633
C	0.0035063968849016105	0.4052294766698477	4.550864093832047
C	0.01190412210403704	1.3729736455334598	5.482827630573072
H	0.021035261056157228	2.428628412357528	5.245503733283848
F	0.004964481389852719	0.5730548876937281	3.229740348268061
