60
56a_H_capped_F cofacial 5.0A
C	-3.6562230973936356	-0.58963058566184	-2.3900537474952357e-05
C	-3.6321281473936353	0.85478845433816	2.8149462525047645e-05
C	-2.4186488973936355	1.50178414433816	-1.8660537474952356e-05
C	-1.2007902273936355	0.7672673743381601	1.8429462525047643e-05
C	-1.2462761073936357	-0.68131212566184	-2.2140537474952357e-05
C	-2.5132683373936358	-1.3359781356618399	1.8039462525047645e-05
C	0.0475573526063644	1.4014250343381602	2.4894625250476443e-06
C	1.2463458326063643	0.6825803243381601	-2.4940537474952357e-05
C	1.2006865326063643	-0.76599604566184	2.1079462525047643e-05
C	-0.04757311739363557	-1.4001393556618398	3.946252504764424e-08
C	2.5136829626063646	1.3367243543381602	2.0079462525047642e-05
C	3.6564058026063644	0.5898881243381601	-2.5020537474952356e-05
C	3.6318328426063644	-0.85450477566184	2.9659462525047645e-05
C	2.418174932606364	-1.50101539566184	-1.9810537474952357e-05
S	5.318946692606364	1.2079888043381601	2.9794625250476443e-06
C	5.903277322606364	-0.45739349566183995	3.2794625250476443e-06
C	4.962455072606364	-1.4165239256618398	-1.2020537474952357e-05
H	-0.08528975739363576	-2.48637229566184	-6.805374749523558e-07
H	5.189817242606365	-2.47440192566184	8.946252504764424e-08
H	2.548572862606364	2.42156072433816	-2.080537474952356e-06
H	-2.3795856373936357	2.58707517433816	-3.2053747495235576e-07
H	-2.5475135373936357	-2.42083332566184	-7.605374749523557e-07
F	7.222789962606365	-0.63746159566184	-4.805374749523558e-07
H	0.08529234260636431	2.48764713433816	-2.2053747495235576e-07
H	2.378512662606364	-2.5862899456618402	-2.5053747495235574e-07
S	-5.318336307393636	-1.2086455156618399	3.0994625250476444e-06
C	-5.903444657393635	0.45639229433816	3.579462525047644e-06
C	-4.963134057393635	1.4160647943381601	-1.2060537474952357e-05
H	-5.191305607393636	2.47377493433816	3.1946252504764426e-07
F	-7.223065247393636	0.6356600943381601	-8.905374749523558e-07
C	-3.6562230536818037	-0.5896307582064266	4.999976099462521
C	-3.6321281036818034	0.8547882817935734	5.000028149462522
C	-2.4186488536818036	1.5017839717935735	4.999981339462521
C	-1.2007901836818036	0.7672672017935734	5.000018429462521
C	-1.2462760636818038	-0.6813122982064266	4.999977859462522
C	-2.513268293681804	-1.3359783082064265	5.000018039462521
C	0.04755739631819634	1.4014248617935736	5.0000024894625215
C	1.2463458763181963	0.6825801517935735	4.999975059462521
C	1.2006865763181962	-0.7659962182064266	5.000021079462521
C	-0.04757307368180363	-1.4001395282064264	5.000000039462521
C	2.5136830063181965	1.3367241817935736	5.000020079462521
C	3.6564058463181963	0.5898879517935735	4.999974979462522
C	3.6318328863181963	-0.8545049482064266	5.0000296594625215
C	2.418174976318196	-1.5010155682064266	4.999980189462521
S	5.318946736318196	1.2079886317935735	5.000002979462521
C	5.903277366318196	-0.4573936682064266	5.000003279462521
C	4.962455116318196	-1.4165240982064264	4.999987979462522
H	-0.08528971368180381	-2.4863724682064268	4.999999319462521
H	5.189817286318197	-2.4744020982064265	5.000000089462522
H	2.548572906318196	2.4215605517935734	4.999997919462522
H	-2.379585593681804	2.5870750017935733	4.999999679462522
H	-2.547513493681804	-2.420833498206427	4.999999239462522
F	7.222790006318197	-0.6374617682064266	4.999999519462522
H	0.08529238631819626	2.4876469617935735	4.999999779462521
H	2.378512706318196	-2.586290118206427	4.999999749462521
S	-5.318336263681804	-1.2086456882064265	5.000003099462521
C	-5.903444613681803	0.45639212179357336	5.000003579462521
C	-4.9631340136818025	1.4160646217935735	4.999987939462521
H	-5.191305563681803	2.4737747617935733	5.000000319462521
F	-7.223065203681804	0.6356599217935734	4.999999109462522
