60
56a_H_capped_F TS45.0
C	-3.6562230973936356	-0.58963058566184	-2.3900537474952357e-05
C	-3.6321281473936353	0.85478845433816	2.8149462525047645e-05
C	-2.4186488973936355	1.50178414433816	-1.8660537474952356e-05
C	-1.2007902273936355	0.7672673743381601	1.8429462525047643e-05
C	-1.2462761073936357	-0.68131212566184	-2.2140537474952357e-05
C	-2.5132683373936358	-1.3359781356618399	1.8039462525047645e-05
C	0.0475573526063644	1.4014250343381602	2.4894625250476443e-06
C	1.2463458326063643	0.6825803243381601	-2.4940537474952357e-05
C	1.2006865326063643	-0.76599604566184	2.1079462525047643e-05
C	-0.04757311739363557	-1.4001393556618398	3.946252504764424e-08
C	2.5136829626063646	1.3367243543381602	2.0079462525047642e-05
C	3.6564058026063644	0.5898881243381601	-2.5020537474952356e-05
C	3.6318328426063644	-0.85450477566184	2.9659462525047645e-05
C	2.418174932606364	-1.50101539566184	-1.9810537474952357e-05
S	5.318946692606364	1.2079888043381601	2.9794625250476443e-06
C	5.903277322606364	-0.45739349566183995	3.2794625250476443e-06
C	4.962455072606364	-1.4165239256618398	-1.2020537474952357e-05
H	-0.08528975739363576	-2.48637229566184	-6.805374749523558e-07
H	5.189817242606365	-2.47440192566184	8.946252504764424e-08
H	2.548572862606364	2.42156072433816	-2.080537474952356e-06
H	-2.3795856373936357	2.58707517433816	-3.2053747495235576e-07
H	-2.5475135373936357	-2.42083332566184	-7.605374749523557e-07
F	7.222789962606365	-0.63746159566184	-4.805374749523558e-07
H	0.08529234260636431	2.48764713433816	-2.2053747495235576e-07
H	2.378512662606364	-2.5862899456618402	-2.5053747495235574e-07
S	-5.318336307393636	-1.2086455156618399	3.0994625250476444e-06
C	-5.903444657393635	0.45639229433816	3.579462525047644e-06
C	-4.963134057393635	1.4160647943381601	-1.2060537474952357e-05
H	-5.191305607393636	2.47377493433816	3.1946252504764426e-07
F	-7.223065247393636	0.6356600943381601	-8.905374749523558e-07
C	-2.586899230221644	-0.5988926463137338	5.331723132051584
C	-2.56623373097236	0.845556097362756	5.339950918595617
C	-1.706473324476801	1.4956154700285371	6.1939826338628405
C	-0.8471799233646918	0.7642043592860981	7.059631098754199
C	-0.8829902354178082	-0.6844589441961394	7.036311805451478
C	-1.7806059781319172	-1.3423242531937416	6.144484405786378
C	0.03718248791152169	1.4015146221888934	7.938417974397609
C	0.883076185633415	0.6857264573733937	8.79044068119159
C	0.8470820251723223	-0.7629336257787904	8.767059975237412
C	-0.037192024042935215	-1.4002295424263633	7.888309036468445
C	1.780874249704823	1.3430711945273737	9.682575395107417
C	2.587063809121024	0.5991497970196307	10.49511412904613
C	2.565984894890298	-0.8452733661295668	10.48662366048455
C	1.7061674609405946	-1.4948487223040166	9.632394567294313
S	3.7642424180030547	1.2214543695654723	11.666898325944842
C	4.173214604983568	-0.44240908960199377	12.090266522475034
C	3.50550992449856	-1.4039050864358271	11.43089288347203
H	-0.06661749245955759	-2.486534295164556	7.868292271961457
H	3.6635921607073887	-2.461183028687535	11.598143530110457
H	1.8083134842961457	2.4279720973459202	9.700585801998912
H	-1.6761104704452485	2.5809818572901424	6.214969794566322
H	-1.8075604125499571	-2.4272425910667614	6.1269010057038
F	5.105825810273531	-0.6191261009003021	13.024367997399958
H	0.06662332992811433	2.487808560706492	7.9584453548387
H	1.675354273178154	-2.5801999173002	9.611010556863105
S	-3.763816622879282	-1.2221100270547813	4.160285829268961
C	-4.173340183426698	0.4414069816470827	3.7363703835893816
C	-3.505974053230832	1.4034435492016226	4.3953570472848575
H	-3.664646367516887	2.46055173200433	4.227552449099496
F	-5.106023934123212	0.6173233862932521	2.8021916611535627
