60
56a_H_capped_F PD short
C	-3.6562230973936356	-0.58963058566184	-2.3900537474952357e-05
C	-3.6321281473936353	0.85478845433816	2.8149462525047645e-05
C	-2.4186488973936355	1.50178414433816	-1.8660537474952356e-05
C	-1.2007902273936355	0.7672673743381601	1.8429462525047643e-05
C	-1.2462761073936357	-0.68131212566184	-2.2140537474952357e-05
C	-2.5132683373936358	-1.3359781356618399	1.8039462525047645e-05
C	0.0475573526063644	1.4014250343381602	2.4894625250476443e-06
C	1.2463458326063643	0.6825803243381601	-2.4940537474952357e-05
C	1.2006865326063643	-0.76599604566184	2.1079462525047643e-05
C	-0.04757311739363557	-1.4001393556618398	3.946252504764424e-08
C	2.5136829626063646	1.3367243543381602	2.0079462525047642e-05
C	3.6564058026063644	0.5898881243381601	-2.5020537474952356e-05
C	3.6318328426063644	-0.85450477566184	2.9659462525047645e-05
C	2.418174932606364	-1.50101539566184	-1.9810537474952357e-05
S	5.318946692606364	1.2079888043381601	2.9794625250476443e-06
C	5.903277322606364	-0.45739349566183995	3.2794625250476443e-06
C	4.962455072606364	-1.4165239256618398	-1.2020537474952357e-05
H	-0.08528975739363576	-2.48637229566184	-6.805374749523558e-07
H	5.189817242606365	-2.47440192566184	8.946252504764424e-08
H	2.548572862606364	2.42156072433816	-2.080537474952356e-06
H	-2.3795856373936357	2.58707517433816	-3.2053747495235576e-07
H	-2.5475135373936357	-2.42083332566184	-7.605374749523557e-07
F	7.222789962606365	-0.63746159566184	-4.805374749523558e-07
H	0.08529234260636431	2.48764713433816	-2.2053747495235576e-07
H	2.378512662606364	-2.5862899456618402	-2.5053747495235574e-07
S	-5.318336307393636	-1.2086455156618399	3.0994625250476444e-06
C	-5.903444657393635	0.45639229433816	3.579462525047644e-06
C	-4.963134057393635	1.4160647943381601	-1.2060537474952357e-05
H	-5.191305607393636	2.47377493433816	3.1946252504764426e-07
F	-7.223065247393636	0.6356600943381601	-8.905374749523558e-07
C	-3.6720971128396753	-2.422358153447429	3.4999760363558594
C	-3.648002162839675	-0.9779391134474288	3.5000280863558597
C	-2.4345229128396753	-0.33094342344742866	3.4999812763558595
C	-1.2166642428396752	-1.0654601934474288	3.5000183663558597
C	-1.2621501228396754	-2.5140396934474287	3.49997779635586
C	-2.5291423528396755	-3.168705703447429	3.5000179763558594
C	0.0316833371603246	-0.4313025334474285	3.50000242635586
C	1.2304718171603246	-1.1501472434474287	3.4999749963558595
C	1.1848125171603245	-2.598723613447429	3.5000210163558596
C	-0.06344713283967537	-3.2328669234474288	3.4999999763558596
C	2.497808947160325	-0.4960032134474286	3.5000200163558595
C	3.6405317871603247	-1.2428394434474288	3.4999749163558596
C	3.6159588271603247	-2.687232343447429	3.5000295963558594
C	2.4023009171603245	-3.333742963447429	3.4999801263558594
S	5.303072677160324	-0.6247387634474286	3.5000029163558595
C	5.887403307160324	-2.2901210634474287	3.5000032163558594
C	4.946581057160324	-3.249251493447429	3.4999879163558596
H	-0.10116377283967556	-4.319099863447429	3.4999992563558595
H	5.173943227160325	-4.3071294934474285	3.5000000263558597
H	2.5326988471603245	0.5888331565525713	3.4999978563558596
H	-2.3954596528396754	0.7543476065525712	3.4999996163558595
H	-2.5633875528396755	-4.253560893447429	3.4999991763558596
F	7.206915947160325	-2.470189163447429	3.4999994563558596
H	0.0694183271603245	0.6549195665525713	3.49999971635586
H	2.3626386471603245	-4.419017513447429	3.4999996863558596
S	-5.334210322839676	-3.0413730834474286	3.5000030363558596
C	-5.919318672839675	-1.3763352734474288	3.50000351635586
C	-4.979008072839675	-0.41666277344742864	3.4999878763558594
H	-5.207179622839676	0.6410473665525711	3.5000002563558597
F	-7.2389392628396765	-1.1970674734474287	3.4999990463558595
