60
56a_H_capped_F PD long
C	-3.6562230973936356	-0.58963058566184	-2.3900537474952357e-05
C	-3.6321281473936353	0.85478845433816	2.8149462525047645e-05
C	-2.4186488973936355	1.50178414433816	-1.8660537474952356e-05
C	-1.2007902273936355	0.7672673743381601	1.8429462525047643e-05
C	-1.2462761073936357	-0.68131212566184	-2.2140537474952357e-05
C	-2.5132683373936358	-1.3359781356618399	1.8039462525047645e-05
C	0.0475573526063644	1.4014250343381602	2.4894625250476443e-06
C	1.2463458326063643	0.6825803243381601	-2.4940537474952357e-05
C	1.2006865326063643	-0.76599604566184	2.1079462525047643e-05
C	-0.04757311739363557	-1.4001393556618398	3.946252504764424e-08
C	2.5136829626063646	1.3367243543381602	2.0079462525047642e-05
C	3.6564058026063644	0.5898881243381601	-2.5020537474952356e-05
C	3.6318328426063644	-0.85450477566184	2.9659462525047645e-05
C	2.418174932606364	-1.50101539566184	-1.9810537474952357e-05
S	5.318946692606364	1.2079888043381601	2.9794625250476443e-06
C	5.903277322606364	-0.45739349566183995	3.2794625250476443e-06
C	4.962455072606364	-1.4165239256618398	-1.2020537474952357e-05
H	-0.08528975739363576	-2.48637229566184	-6.805374749523558e-07
H	5.189817242606365	-2.47440192566184	8.946252504764424e-08
H	2.548572862606364	2.42156072433816	-2.080537474952356e-06
H	-2.3795856373936357	2.58707517433816	-3.2053747495235576e-07
H	-2.5475135373936357	-2.42083332566184	-7.605374749523557e-07
F	7.222789962606365	-0.63746159566184	-4.805374749523558e-07
H	0.08529234260636431	2.48764713433816	-2.2053747495235576e-07
H	2.378512662606364	-2.5862899456618402	-2.5053747495235574e-07
S	-5.318336307393636	-1.2086455156618399	3.0994625250476444e-06
C	-5.903444657393635	0.45639229433816	3.579462525047644e-06
C	-4.963134057393635	1.4160647943381601	-1.2060537474952357e-05
H	-5.191305607393636	2.47377493433816	3.1946252504764426e-07
F	-7.223065247393636	0.6356600943381601	-8.905374749523558e-07
C	0.6876340839112263	-0.6272547342454274	3.4999760601885677
C	0.7117290339112265	0.8171643057545726	3.5000281101885675
C	1.9252082839112263	1.4641599957545726	3.499981300188568
C	3.1430669539112266	0.7296432257545726	3.5000183901885675
C	3.0975810739112264	-0.7189362742454274	3.4999778201885676
C	1.8305888439112261	-1.3736022842454274	3.5000180001885677
C	4.3914145339112265	1.3638008857545727	3.5000024501885676
C	5.590203013911226	0.6449561757545726	3.4999750201885678
C	5.544543713911226	-0.8036201942454274	3.5000210401885674
C	4.296284063911226	-1.4377635042454273	3.500000000188568
C	6.857540143911226	1.2991002057545726	3.5000200401885677
C	8.000262983911227	0.5522639757545726	3.499974940188568
C	7.975690023911226	-0.8921289242454274	3.5000296201885677
C	6.762032113911226	-1.5386395442454275	3.4999801501885677
S	9.662803873911226	1.1703646557545726	3.5000029401885677
C	10.247134503911226	-0.4950176442454274	3.5000032401885677
C	9.306312253911226	-1.4541480742454274	3.4999879401885674
H	4.258567423911226	-2.523996444245428	3.4999992801885678
H	9.533674423911227	-2.5120260742454277	3.5000000501885675
H	6.892430043911226	2.3839365757545723	3.499997880188568
H	1.9642715439112262	2.549451025754572	3.499999640188568
H	1.7963436439112261	-2.458457474245428	3.499999200188568
F	11.566647143911228	-0.6750857442454274	3.4999994801885674
H	4.429149523911226	2.4500229857545723	3.4999997401885676
H	6.722369843911226	-2.623914094245428	3.499999710188568
S	-0.9744791260887744	-1.2462696642454274	3.5000030601885674
C	-1.5595874760887731	0.41876814575457255	3.5000035401885676
C	-0.619276876088773	1.3784406457545726	3.4999879001885676
H	-0.8474484260887738	2.436150785754572	3.5000002801885675
F	-2.879208066088774	0.5980359457545726	3.4999990701885677
