60
56a_H_capped_F TL45.0
C	-3.6562230973936356	-0.58963058566184	-2.3900537474952357e-05
C	-3.6321281473936353	0.85478845433816	2.8149462525047645e-05
C	-2.4186488973936355	1.50178414433816	-1.8660537474952356e-05
C	-1.2007902273936355	0.7672673743381601	1.8429462525047643e-05
C	-1.2462761073936357	-0.68131212566184	-2.2140537474952357e-05
C	-2.5132683373936358	-1.3359781356618399	1.8039462525047645e-05
C	0.0475573526063644	1.4014250343381602	2.4894625250476443e-06
C	1.2463458326063643	0.6825803243381601	-2.4940537474952357e-05
C	1.2006865326063643	-0.76599604566184	2.1079462525047643e-05
C	-0.04757311739363557	-1.4001393556618398	3.946252504764424e-08
C	2.5136829626063646	1.3367243543381602	2.0079462525047642e-05
C	3.6564058026063644	0.5898881243381601	-2.5020537474952356e-05
C	3.6318328426063644	-0.85450477566184	2.9659462525047645e-05
C	2.418174932606364	-1.50101539566184	-1.9810537474952357e-05
S	5.318946692606364	1.2079888043381601	2.9794625250476443e-06
C	5.903277322606364	-0.45739349566183995	3.2794625250476443e-06
C	4.962455072606364	-1.4165239256618398	-1.2020537474952357e-05
H	-0.08528975739363576	-2.48637229566184	-6.805374749523558e-07
H	5.189817242606365	-2.47440192566184	8.946252504764424e-08
H	2.548572862606364	2.42156072433816	-2.080537474952356e-06
H	-2.3795856373936357	2.58707517433816	-3.2053747495235576e-07
H	-2.5475135373936357	-2.42083332566184	-7.605374749523557e-07
F	7.222789962606365	-0.63746159566184	-4.805374749523558e-07
H	0.08529234260636431	2.48764713433816	-2.2053747495235576e-07
H	2.378512662606364	-2.5862899456618402	-2.5053747495235574e-07
S	-5.318336307393636	-1.2086455156618399	3.0994625250476444e-06
C	-5.903444657393635	0.45639229433816	3.579462525047644e-06
C	-4.963134057393635	1.4160647943381601	-1.2060537474952357e-05
H	-5.191305607393636	2.47377493433816	3.1946252504764426e-07
F	-7.223065247393636	0.6356600943381601	-8.905374749523558e-07
C	-3.6546469539743915	-0.40765298180450027	-4.801290179763165
C	-3.6342168785838815	0.6136393270816314	-3.779785620659879
C	-2.4224052235798226	1.068103458657691	-3.3149090981751925
C	-1.2027103059453337	0.5455899745459053	-3.8267866164342292
C	-1.244520357907481	-0.47859817032974616	-4.85135584210746
C	-2.5098243194218455	-0.9383457718771164	-5.321988315478795
C	0.04400128984939384	0.9908656882337573	-3.3707522381321606
C	1.244587076648476	0.47952836435840424	-3.8717107667312067
C	1.2026030702509751	-0.544718353370904	-4.8962176129476
C	-0.04402040739926581	-0.9899579949844293	-5.352267454944764
C	2.5102367328872743	0.9388457406967212	-3.4013850173357736
C	3.6548292252211296	0.40786952352046246	-3.922491655960203
C	3.633920430374519	-0.6134785551324067	-4.943905189967673
C	2.421929478479896	-1.0675311488719255	-5.408507903444053
S	5.3157654929298745	0.8407091353864692	-3.4752431262455885
C	5.904307821722253	-0.33841305129317384	-4.649223231021235
C	4.9659393418876965	-1.0142443620083135	-5.3331781444411
H	-0.07898079077363734	-1.7579683542207671	-6.120552821572582
H	5.195979938444478	-1.762885622789963	-6.079781791611956
H	2.542374121142378	1.7058918936936587	-2.6341206282647103
H	-2.386095968380527	1.8354318915376335	-2.5472690311532005
H	-2.5413167232489813	-1.7053779064345158	-6.0892910265413365
F	7.224248268151632	-0.46908891954771015	-4.768467363402055
H	0.07898007132463931	1.7588707609314242	-2.6024768492492343
H	2.385020952525042	-1.834873207108511	-6.176113186968685
S	-5.3151535687598965	-0.8411790604387763	-5.249143647479985
C	-5.9044727313814045	0.3377009487697059	-4.075411336250018
C	-4.966617075875627	1.0139387477289268	-3.3910981472292034
H	-5.197466758827304	1.7624460466296725	-2.644600830412253
F	-7.224519044932089	0.4678169949899416	-3.956739560810221
