84
8b TL45.0
C	-7.646244208690947	-0.8162885493567171	-1.134682772687195e-05
C	-7.665638028690946	0.612531390643283	-7.94682772687195e-06
C	-6.500724498690946	1.321775250643283	-1.6868277268719515e-06
C	-5.232731568690946	0.6561016006432829	1.381317227312805e-05
C	-5.213168828690946	-0.793296219356717	-1.0926827726871951e-05
C	-6.462417468690946	-1.4934306593567168	9.103172273128049e-06
C	-4.028726378690946	1.352768790643283	-1.7468277268719515e-06
C	-2.787384728690946	0.689959980643283	9.583172273128049e-06
C	-2.768040218690946	-0.7608498493567171	-2.326682772687195e-05
C	-3.9908419886909456	-1.457028789356717	1.4213172273128049e-05
C	-1.5631802486909459	1.387958510643283	-1.0068277268719514e-06
C	-0.34303220869094586	0.7223596606432829	1.1317227312804858e-07
C	-0.32402281869094574	-0.728400019356717	-7.296827726871952e-06
C	-1.5259364086909457	-1.426063209356717	1.845317227312805e-05
C	0.9022129713090541	1.416977400643283	7.0731722731280485e-06
C	2.097832461309054	0.749474070643283	-1.6166827726871952e-05
C	2.116417571309054	-0.692624169356717	1.542317227312805e-05
C	0.938517701309054	-1.390639369356717	1.5731722731280484e-06
C	3.3621178513090544	1.534609780643283	3.243317227312805e-05
C	4.641377761309053	0.764064260643283	-4.359682772687195e-05
C	4.659216811309054	-0.643076549356717	3.944317227312805e-05
C	3.3999933713090544	-1.4455800193567172	-2.003682772687195e-05
H	-4.043540298690946	2.439256090643283	-1.7068277268719515e-06
H	-6.516235958690945	2.407516410643283	9.463172273128048e-06
H	-8.619206838690946	1.130269940643283	-7.326827726871952e-06
H	-8.585351498690946	-1.3598316393567171	-1.156682772687195e-05
H	-6.447945128690947	-2.5791879693567172	1.5393172273128048e-05
H	-3.975979948690946	-2.543510779356717	-8.168277268719514e-07
H	0.9797308613090543	-2.474725159356717	-1.467682772687195e-05
H	0.9155549513090544	2.5017813506432827	8.513172273128049e-06
C	5.848990671309053	1.470296960643283	1.9613172273128048e-05
C	7.059223271309055	0.7899031406432829	-8.776827726871951e-06
C	7.076871111309055	-0.6082779593567171	7.143172273128049e-06
C	5.884133521309055	-1.318809759356717	-1.847682772687195e-05
H	-1.5758844886909458	2.474180190643283	5.383172273128049e-06
H	-1.5097218186909458	-2.512224239356717	-8.17682772687195e-06
H	5.809243321309054	2.553138700643283	3.4317227312804857e-07
H	7.991963511309054	1.344524300643283	-4.236827726871952e-06
H	8.023256111309054	-1.1392916493567171	-1.1682772687195143e-07
H	5.871400961309055	-2.402305609356717	-1.6568277268719515e-06
O	3.3611511113090544	2.755229740643283	-2.5816827726871953e-05
O	3.4297176513090544	-2.665857489356717	1.4733172273128049e-05
C	-7.648991690699148	-0.6065776106770113	-5.3102200994138
C	-7.662903204397791	0.4037456597177171	-4.299796475237846
C	-6.495327326035683	0.9097568176676594	-3.809113622815779
C	-5.22995165960587	0.44387428231714093	-4.291509067588259
C	-5.2159503737951205	-0.5809850443146263	-5.316498856142591
C	-6.467821934552376	-1.0808965233561103	-5.79994120793535
C	-4.023334535006705	0.9411571493532979	-3.8100960056675337
C	-2.784597857651837	0.47720121547257344	-4.290221974929138
C	-2.7708202828037782	-0.5486517269860762	-5.3162138330114175
C	-3.9962309667316354	-1.0456769298083932	-5.797092081733796
C	-1.557777304766037	0.9754995227191494	-3.808051170277346
C	-0.3402439701907512	0.5094965092085328	-4.289960746064575
C	-0.3268010704839138	-0.5163402421532093	-5.31589605303078
C	-1.5313304267098937	-1.0143266186761295	-5.798025500335263
C	0.9076034183413035	1.0054723739328535	-3.810362789825107
C	2.100601903893377	0.5380457221030402	-4.293408956975489
C	2.1136541335341468	-0.4816952334361735	-5.313188719483117
C	0.9331355733502039	-0.9798104167201416	-5.79581747599488
C	3.3678361801713637	1.0980756060622754	-3.7499575323334784
C	4.6440750986692905	0.5581401279855815	-4.306671304330517
C	4.656515887531065	-0.4369196745370595	-5.301691260886214
C	3.394276579154355	-1.0092041810307593	-5.857477071033694
H	-4.03397968110657	1.7094174300068186	-3.0417621411777898
H	-6.506672736552793	1.6774789290111594	-3.0412929969868836
H	-8.614437917471442	0.7662096331971984	-3.9248988367995477
H	-8.59013695234174	-0.9945503442891813	-5.685832063119876
H	-6.457515492238286	-1.8486463724044155	-6.567751296053635
H	-3.9855378215197916	-1.8139226722405657	-6.565433237037572
H	0.9701876954247264	-1.746259719659379	-6.5627093400636705
H	0.9251063125298219	1.7726492825681264	-3.0434789277443826
C	5.854337187168697	1.0621454584927297	-3.818472702422545
C	7.061898549607632	0.5856629055451126	-4.31077203198139
C	7.074181888023007	-0.40301425159756815	-5.299502750351645
C	5.878778227757493	-0.910029234614759	-5.790852212635386
H	-1.5663138370531102	1.7435755716560084	-3.0399201615796843
H	-1.5192836756296926	-1.782332001648221	-6.566160452178354
H	5.818745699960823	1.827745760087833	-3.0524991321700186
H	7.996719619397196	0.9814420948060222	-3.9272653341505865
H	8.018482163948892	-0.7748886972025478	-5.683724682101265
H	5.861889910260165	-1.6762916839598676	-6.556803920506081
O	3.3715515437559667	1.9612830746159016	-2.886955164412992
O	3.419318406794233	-1.8720425352980763	-6.720520244399774
