84
8b cofacial 4.5A
C	-7.646244208690947	-0.8162885493567171	-1.134682772687195e-05
C	-7.665638028690946	0.612531390643283	-7.94682772687195e-06
C	-6.500724498690946	1.321775250643283	-1.6868277268719515e-06
C	-5.232731568690946	0.6561016006432829	1.381317227312805e-05
C	-5.213168828690946	-0.793296219356717	-1.0926827726871951e-05
C	-6.462417468690946	-1.4934306593567168	9.103172273128049e-06
C	-4.028726378690946	1.352768790643283	-1.7468277268719515e-06
C	-2.787384728690946	0.689959980643283	9.583172273128049e-06
C	-2.768040218690946	-0.7608498493567171	-2.326682772687195e-05
C	-3.9908419886909456	-1.457028789356717	1.4213172273128049e-05
C	-1.5631802486909459	1.387958510643283	-1.0068277268719514e-06
C	-0.34303220869094586	0.7223596606432829	1.1317227312804858e-07
C	-0.32402281869094574	-0.728400019356717	-7.296827726871952e-06
C	-1.5259364086909457	-1.426063209356717	1.845317227312805e-05
C	0.9022129713090541	1.416977400643283	7.0731722731280485e-06
C	2.097832461309054	0.749474070643283	-1.6166827726871952e-05
C	2.116417571309054	-0.692624169356717	1.542317227312805e-05
C	0.938517701309054	-1.390639369356717	1.5731722731280484e-06
C	3.3621178513090544	1.534609780643283	3.243317227312805e-05
C	4.641377761309053	0.764064260643283	-4.359682772687195e-05
C	4.659216811309054	-0.643076549356717	3.944317227312805e-05
C	3.3999933713090544	-1.4455800193567172	-2.003682772687195e-05
H	-4.043540298690946	2.439256090643283	-1.7068277268719515e-06
H	-6.516235958690945	2.407516410643283	9.463172273128048e-06
H	-8.619206838690946	1.130269940643283	-7.326827726871952e-06
H	-8.585351498690946	-1.3598316393567171	-1.156682772687195e-05
H	-6.447945128690947	-2.5791879693567172	1.5393172273128048e-05
H	-3.975979948690946	-2.543510779356717	-8.168277268719514e-07
H	0.9797308613090543	-2.474725159356717	-1.467682772687195e-05
H	0.9155549513090544	2.5017813506432827	8.513172273128049e-06
C	5.848990671309053	1.470296960643283	1.9613172273128048e-05
C	7.059223271309055	0.7899031406432829	-8.776827726871951e-06
C	7.076871111309055	-0.6082779593567171	7.143172273128049e-06
C	5.884133521309055	-1.318809759356717	-1.847682772687195e-05
H	-1.5758844886909458	2.474180190643283	5.383172273128049e-06
H	-1.5097218186909458	-2.512224239356717	-8.17682772687195e-06
H	5.809243321309054	2.553138700643283	3.4317227312804857e-07
H	7.991963511309054	1.344524300643283	-4.236827726871952e-06
H	8.023256111309054	-1.1392916493567171	-1.1682772687195143e-07
H	5.871400961309055	-2.402305609356717	-1.6568277268719515e-06
O	3.3611511113090544	2.755229740643283	-2.5816827726871953e-05
O	3.4297176513090544	-2.665857489356717	1.4733172273128049e-05
C	-7.646244069825317	-0.8162799324035896	4.499988653164021
C	-7.665637889825317	0.6125400075964105	4.499992053164021
C	-6.500724359825317	1.3217838675964104	4.499998313164021
C	-5.232731429825317	0.6561102175964104	4.5000138131640215
C	-5.2131686898253164	-0.7932876024035895	4.499989073164021
C	-6.462417329825317	-1.4934220424035893	4.500009103164021
C	-4.028726239825317	1.3527774075964105	4.499998253164021
C	-2.787384589825317	0.6899685975964105	4.500009583164021
C	-2.7680400798253166	-0.7608412324035896	4.499976733164021
C	-3.9908418498253164	-1.4570201724035896	4.500014213164021
C	-1.5631801098253169	1.3879671275964105	4.499998993164021
C	-0.34303206982531675	0.7223682775964104	4.500000113164021
C	-0.32402267982531663	-0.7283914024035896	4.499992703164021
C	-1.5259362698253167	-1.4260545924035894	4.500018453164021
C	0.9022131101746832	1.4169860175964104	4.500007073164021
C	2.097832600174683	0.7494826875964105	4.499983833164021
C	2.1164177101746833	-0.6926155524035895	4.5000154231640215
C	0.9385178401746831	-1.3906307524035895	4.500001573164021
C	3.3621179901746836	1.5346183975964105	4.500032433164021
C	4.641377900174683	0.7640728775964105	4.499956403164021
C	4.659216950174684	-0.6430679324035895	4.500039443164021
C	3.3999935101746837	-1.4455714024035897	4.499979963164021
H	-4.043540159825317	2.4392647075964105	4.499998293164021
H	-6.516235819825316	2.4075250275964106	4.500009463164021
H	-8.619206699825318	1.1302785575964105	4.499992673164021
H	-8.585351359825317	-1.3598230224035897	4.499988433164021
H	-6.447944989825317	-2.5791793524035898	4.500015393164021
H	-3.9759798098253167	-2.5435021624035894	4.499999183164021
H	0.9797310001746834	-2.4747165424035895	4.4999853231640214
H	0.9155550901746835	2.50178996759641	4.500008513164021
C	5.848990810174683	1.4703055775964105	4.500019613164021
C	7.059223410174684	0.7899117575964104	4.499991223164021
C	7.076871250174684	-0.6082693424035897	4.500007143164021
C	5.884133660174684	-1.3188011424035895	4.4999815231640214
H	-1.5758843498253168	2.4741888075964105	4.500005383164021
H	-1.5097216798253168	-2.5122156224035894	4.499991823164021
H	5.809243460174684	2.5531473175964106	4.500000343164021
H	7.991963650174683	1.3445329175964105	4.499995763164021
H	8.023256250174683	-1.1392830324035896	4.499999883164021
H	5.871401100174684	-2.4022969924035897	4.499998343164021
O	3.3611512501746836	2.7552383575964106	4.499974183164021
O	3.4297177901746836	-2.6658488724035894	4.500014733164021
