84
8b TL90.0
C	-7.646244208690947	-0.8162885493567171	-1.134682772687195e-05
C	-7.665638028690946	0.612531390643283	-7.94682772687195e-06
C	-6.500724498690946	1.321775250643283	-1.6868277268719515e-06
C	-5.232731568690946	0.6561016006432829	1.381317227312805e-05
C	-5.213168828690946	-0.793296219356717	-1.0926827726871951e-05
C	-6.462417468690946	-1.4934306593567168	9.103172273128049e-06
C	-4.028726378690946	1.352768790643283	-1.7468277268719515e-06
C	-2.787384728690946	0.689959980643283	9.583172273128049e-06
C	-2.768040218690946	-0.7608498493567171	-2.326682772687195e-05
C	-3.9908419886909456	-1.457028789356717	1.4213172273128049e-05
C	-1.5631802486909459	1.387958510643283	-1.0068277268719514e-06
C	-0.34303220869094586	0.7223596606432829	1.1317227312804858e-07
C	-0.32402281869094574	-0.728400019356717	-7.296827726871952e-06
C	-1.5259364086909457	-1.426063209356717	1.845317227312805e-05
C	0.9022129713090541	1.416977400643283	7.0731722731280485e-06
C	2.097832461309054	0.749474070643283	-1.6166827726871952e-05
C	2.116417571309054	-0.692624169356717	1.542317227312805e-05
C	0.938517701309054	-1.390639369356717	1.5731722731280484e-06
C	3.3621178513090544	1.534609780643283	3.243317227312805e-05
C	4.641377761309053	0.764064260643283	-4.359682772687195e-05
C	4.659216811309054	-0.643076549356717	3.944317227312805e-05
C	3.3999933713090544	-1.4455800193567172	-2.003682772687195e-05
H	-4.043540298690946	2.439256090643283	-1.7068277268719515e-06
H	-6.516235958690945	2.407516410643283	9.463172273128048e-06
H	-8.619206838690946	1.130269940643283	-7.326827726871952e-06
H	-8.585351498690946	-1.3598316393567171	-1.156682772687195e-05
H	-6.447945128690947	-2.5791879693567172	1.5393172273128048e-05
H	-3.975979948690946	-2.543510779356717	-8.168277268719514e-07
H	0.9797308613090543	-2.474725159356717	-1.467682772687195e-05
H	0.9155549513090544	2.5017813506432827	8.513172273128049e-06
C	5.848990671309053	1.470296960643283	1.9613172273128048e-05
C	7.059223271309055	0.7899031406432829	-8.776827726871951e-06
C	7.076871111309055	-0.6082779593567171	7.143172273128049e-06
C	5.884133521309055	-1.318809759356717	-1.847682772687195e-05
H	-1.5758844886909458	2.474180190643283	5.383172273128049e-06
H	-1.5097218186909458	-2.512224239356717	-8.17682772687195e-06
H	5.809243321309054	2.553138700643283	3.4317227312804857e-07
H	7.991963511309054	1.344524300643283	-4.236827726871952e-06
H	8.023256111309054	-1.1392916493567171	-1.1682772687195143e-07
H	5.871400961309055	-2.402305609356717	-1.6568277268719515e-06
O	3.3611511113090544	2.755229740643283	-2.5816827726871953e-05
O	3.4297176513090544	-2.665857489356717	1.4733172273128049e-05
C	-7.6556241051454945	-0.10028746709017432	-6.776615680667632
C	-7.656300336634599	-0.10029972588510598	-5.347664287593657
C	-6.482297152819717	-0.08492676916900894	-4.653740241347764
C	-5.223240354064698	-0.06844886715117289	-5.335965963032613
C	-5.22266503342891	-0.06841658843818016	-6.785495683318946
C	-6.480869200708135	-0.08491885419513205	-7.469206402617136
C	-4.010317228405274	-0.05254424476579017	-4.655129561509531
C	-2.777869668787054	-0.036410748335510175	-5.334141589275414
C	-2.777531140983694	-0.03637346086752202	-6.785080339870857
C	-4.009240939520018	-0.0525461069565244	-7.465182320699831
C	-1.5447332163049523	-0.02024630565970669	-4.652238548367677
C	-0.33351230711976243	-0.004380663415822441	-5.333762765976421
C	-0.3335078517386645	-0.004373194415417282	-6.784646981205585
C	-1.5443526480753407	-0.020260781958312598	-7.466506694722366
C	0.9206171846616833	0.012041232555425715	-4.65551583287528
C	2.1072884890418533	0.027609641760001857	-5.338623072600165
C	2.1069826927777444	0.027574043177017313	-6.780841033362034
C	0.9201423670188988	0.01204051300696898	-7.463367277518238
C	3.3816410441676723	0.04425481242200124	-4.5701153391422995
C	4.650588113378396	0.06095381294507572	-5.357351517445153
C	4.6499949200376784	0.06086299510098543	-6.764605274818634
C	3.380475826641569	0.04429202279703866	-7.550545583700275
H	-4.01089815070943	-0.05255189474033801	-3.5685414298985636
H	-6.483585122613434	-0.08495479228371618	-3.567889048788528
H	-8.602924357764666	-0.1127009396323864	-4.817479551790709
H	-8.601689418492564	-0.11268052180024785	-7.307810962926805
H	-6.480620155711666	-0.08492188229297064	-8.555060132569057
H	-4.008612032272792	-0.05252283710227223	-8.551765773080461
H	0.9471492416834674	0.012410549295924202	-8.547899903442957
H	0.9481653018225119	0.012400667499829014	-3.5709797152584386
C	5.867244657742084	0.07682856564332857	-4.666997683366397
C	7.068357661966606	0.09259130879665653	-5.363185721337441
C	7.067689763601723	0.09256663808984882	-6.761478032769658
C	5.8658501711483595	0.07684839140362719	-7.456325446810522
H	-1.5432082164089715	-0.020232719000881284	-3.565943648238089
H	-1.5423673710102013	-0.02020814292350054	-8.552786931416744
H	5.841686582152751	0.07651303139284048	-3.583728201058374
H	8.008202171278459	0.10489855179255807	-4.820829918803885
H	8.006957246889582	0.10487812316757877	-7.304842670391944
H	5.8389287416731905	0.0764789043814048	-8.539561559321845
O	3.396660988211291	0.04450982581513135	-3.3495874365612934
O	3.39421266673006	0.04443719979265656	-8.771107714838259
