84
8b PD long
C	-7.646244208690947	-0.8162885493567171	-1.134682772687195e-05
C	-7.665638028690946	0.612531390643283	-7.94682772687195e-06
C	-6.500724498690946	1.321775250643283	-1.6868277268719515e-06
C	-5.232731568690946	0.6561016006432829	1.381317227312805e-05
C	-5.213168828690946	-0.793296219356717	-1.0926827726871951e-05
C	-6.462417468690946	-1.4934306593567168	9.103172273128049e-06
C	-4.028726378690946	1.352768790643283	-1.7468277268719515e-06
C	-2.787384728690946	0.689959980643283	9.583172273128049e-06
C	-2.768040218690946	-0.7608498493567171	-2.326682772687195e-05
C	-3.9908419886909456	-1.457028789356717	1.4213172273128049e-05
C	-1.5631802486909459	1.387958510643283	-1.0068277268719514e-06
C	-0.34303220869094586	0.7223596606432829	1.1317227312804858e-07
C	-0.32402281869094574	-0.728400019356717	-7.296827726871952e-06
C	-1.5259364086909457	-1.426063209356717	1.845317227312805e-05
C	0.9022129713090541	1.416977400643283	7.0731722731280485e-06
C	2.097832461309054	0.749474070643283	-1.6166827726871952e-05
C	2.116417571309054	-0.692624169356717	1.542317227312805e-05
C	0.938517701309054	-1.390639369356717	1.5731722731280484e-06
C	3.3621178513090544	1.534609780643283	3.243317227312805e-05
C	4.641377761309053	0.764064260643283	-4.359682772687195e-05
C	4.659216811309054	-0.643076549356717	3.944317227312805e-05
C	3.3999933713090544	-1.4455800193567172	-2.003682772687195e-05
H	-4.043540298690946	2.439256090643283	-1.7068277268719515e-06
H	-6.516235958690945	2.407516410643283	9.463172273128048e-06
H	-8.619206838690946	1.130269940643283	-7.326827726871952e-06
H	-8.585351498690946	-1.3598316393567171	-1.156682772687195e-05
H	-6.447945128690947	-2.5791879693567172	1.5393172273128048e-05
H	-3.975979948690946	-2.543510779356717	-8.168277268719514e-07
H	0.9797308613090543	-2.474725159356717	-1.467682772687195e-05
H	0.9155549513090544	2.5017813506432827	8.513172273128049e-06
C	5.848990671309053	1.470296960643283	1.9613172273128048e-05
C	7.059223271309055	0.7899031406432829	-8.776827726871951e-06
C	7.076871111309055	-0.6082779593567171	7.143172273128049e-06
C	5.884133521309055	-1.318809759356717	-1.847682772687195e-05
H	-1.5758844886909458	2.474180190643283	5.383172273128049e-06
H	-1.5097218186909458	-2.512224239356717	-8.17682772687195e-06
H	5.809243321309054	2.553138700643283	3.4317227312804857e-07
H	7.991963511309054	1.344524300643283	-4.236827726871952e-06
H	8.023256111309054	-1.1392916493567171	-1.1682772687195143e-07
H	5.871400961309055	-2.402305609356717	-1.6568277268719515e-06
O	3.3611511113090544	2.755229740643283	-2.5816827726871953e-05
O	3.4297176513090544	-2.665857489356717	1.4733172273128049e-05
C	-3.0921901170934194	-0.7566243559830078	3.499988398395326
C	-3.111583937093419	0.6721955840169923	3.4999917983953264
C	-1.9466704070934193	1.3814394440169924	3.4999980583953265
C	-0.6786774770934191	0.7157657940169923	3.5000135583953265
C	-0.6591147370934186	-0.7336320259830077	3.4999888183953263
C	-1.908363377093419	-1.4337664659830074	3.500008848395326
C	0.5253277129065811	1.4124329840169925	3.4999979983953264
C	1.7666693629065808	0.7496241740169923	3.5000093283953264
C	1.786013872906581	-0.7011856559830077	3.499976478395326
C	0.5632121029065814	-1.3973645959830077	3.5000139583953263
C	2.990873842906581	1.4476227040169924	3.4999987383953264
C	4.211021882906581	0.7820238540169923	3.4999998583953262
C	4.230031272906581	-0.6687358259830077	3.4999924483953264
C	3.0281176829065815	-1.3663990159830075	3.5000181983953262
C	5.456267062906581	1.4766415940169924	3.5000068183953266
C	6.651886552906581	0.8091382640169923	3.499983578395326
C	6.670471662906581	-0.6329599759830077	3.5000151683953264
C	5.49257179290658	-1.3309751759830075	3.5000013183953262
C	7.916171942906581	1.5942739740169924	3.5000321783953265
C	9.195431852906582	0.8237284540169924	3.4999561483953263
C	9.213270902906581	-0.5834123559830077	3.500039188395326
C	7.954047462906581	-1.3859158259830078	3.499979708395326
H	0.5105137929065812	2.4989202840169926	3.499998038395326
H	-1.9621818670934184	2.467180604016993	3.5000092083953263
H	-4.0651527470934194	1.1899341340169924	3.499992418395326
H	-4.031297407093419	-1.3001674459830077	3.499988178395326
H	-1.8938910370934197	-2.5195237759830076	3.500015138395326
H	0.5780741429065811	-2.4838465859830072	3.4999989283953266
H	5.533784952906581	-2.4150609659830073	3.4999850683953264
H	5.469609042906581	2.5614455440169923	3.5000082583953263
C	10.40304476290658	1.5299611540169924	3.5000193583953263
C	11.613277362906581	0.8495673340169922	3.4999909683953265
C	11.630925202906583	-0.5486137659830078	3.500006888395326
C	10.438187612906583	-1.2591455659830075	3.4999812683953264
H	2.9781696029065814	2.5338443840169926	3.500005128395326
H	3.044332272906581	-2.4525600459830073	3.4999915683953264
H	10.363297412906581	2.6128028940169927	3.500000088395326
H	12.546017602906582	1.4041884940169924	3.4999955083953265
H	12.577310202906583	-1.0796274559830077	3.4999996283953263
H	10.425455052906583	-2.3426414159830076	3.4999980883953263
O	7.915205202906582	2.8148939340169927	3.499973928395326
O	7.983771742906581	-2.606193295983007	3.500014478395326
