84
8b cofacial 3.5A
C	-7.646244208690947	-0.8162885493567171	-1.134682772687195e-05
C	-7.665638028690946	0.612531390643283	-7.94682772687195e-06
C	-6.500724498690946	1.321775250643283	-1.6868277268719515e-06
C	-5.232731568690946	0.6561016006432829	1.381317227312805e-05
C	-5.213168828690946	-0.793296219356717	-1.0926827726871951e-05
C	-6.462417468690946	-1.4934306593567168	9.103172273128049e-06
C	-4.028726378690946	1.352768790643283	-1.7468277268719515e-06
C	-2.787384728690946	0.689959980643283	9.583172273128049e-06
C	-2.768040218690946	-0.7608498493567171	-2.326682772687195e-05
C	-3.9908419886909456	-1.457028789356717	1.4213172273128049e-05
C	-1.5631802486909459	1.387958510643283	-1.0068277268719514e-06
C	-0.34303220869094586	0.7223596606432829	1.1317227312804858e-07
C	-0.32402281869094574	-0.728400019356717	-7.296827726871952e-06
C	-1.5259364086909457	-1.426063209356717	1.845317227312805e-05
C	0.9022129713090541	1.416977400643283	7.0731722731280485e-06
C	2.097832461309054	0.749474070643283	-1.6166827726871952e-05
C	2.116417571309054	-0.692624169356717	1.542317227312805e-05
C	0.938517701309054	-1.390639369356717	1.5731722731280484e-06
C	3.3621178513090544	1.534609780643283	3.243317227312805e-05
C	4.641377761309053	0.764064260643283	-4.359682772687195e-05
C	4.659216811309054	-0.643076549356717	3.944317227312805e-05
C	3.3999933713090544	-1.4455800193567172	-2.003682772687195e-05
H	-4.043540298690946	2.439256090643283	-1.7068277268719515e-06
H	-6.516235958690945	2.407516410643283	9.463172273128048e-06
H	-8.619206838690946	1.130269940643283	-7.326827726871952e-06
H	-8.585351498690946	-1.3598316393567171	-1.156682772687195e-05
H	-6.447945128690947	-2.5791879693567172	1.5393172273128048e-05
H	-3.975979948690946	-2.543510779356717	-8.168277268719514e-07
H	0.9797308613090543	-2.474725159356717	-1.467682772687195e-05
H	0.9155549513090544	2.5017813506432827	8.513172273128049e-06
C	5.848990671309053	1.470296960643283	1.9613172273128048e-05
C	7.059223271309055	0.7899031406432829	-8.776827726871951e-06
C	7.076871111309055	-0.6082779593567171	7.143172273128049e-06
C	5.884133521309055	-1.318809759356717	-1.847682772687195e-05
H	-1.5758844886909458	2.474180190643283	5.383172273128049e-06
H	-1.5097218186909458	-2.512224239356717	-8.17682772687195e-06
H	5.809243321309054	2.553138700643283	3.4317227312804857e-07
H	7.991963511309054	1.344524300643283	-4.236827726871952e-06
H	8.023256111309054	-1.1392916493567171	-1.1682772687195143e-07
H	5.871400961309055	-2.402305609356717	-1.6568277268719515e-06
O	3.3611511113090544	2.755229740643283	-2.5816827726871953e-05
O	3.4297176513090544	-2.665857489356717	1.4733172273128049e-05
C	-7.6462441006843465	-0.8162818472820624	3.499988653165855
C	-7.665637920684346	0.6125380927179377	3.4999920531658546
C	-6.500724390684346	1.3217819527179377	3.4999983131658547
C	-5.232731460684346	0.6561083027179376	3.5000138131658547
C	-5.213168720684346	-0.7932895172820623	3.4999890731658545
C	-6.462417360684346	-1.493423957282062	3.500009103165855
C	-4.028726270684346	1.3527754927179378	3.4999982531658547
C	-2.7873846206843456	0.6899666827179377	3.5000095831658546
C	-2.7680401106843453	-0.7608431472820624	3.499976733165855
C	-3.990841880684345	-1.4570220872820623	3.500014213165855
C	-1.5631801406843455	1.3879652127179378	3.4999989931658546
C	-0.3430321006843455	0.7223663627179376	3.500000113165855
C	-0.32402271068434535	-0.7283933172820624	3.4999927031658546
C	-1.5259363006843454	-1.4260565072820621	3.500018453165855
C	0.9022130793156545	1.4169841027179377	3.500007073165855
C	2.0978325693156545	0.7494807727179377	3.499983833165855
C	2.1164176793156546	-0.6926174672820623	3.5000154231658547
C	0.9385178093156544	-1.3906326672820621	3.500001573165855
C	3.362117959315655	1.5346164827179378	3.5000324331658548
C	4.6413778693156535	0.7640709627179377	3.4999564031658545
C	4.6592169193156545	-0.6430698472820623	3.500039443165855
C	3.399993479315655	-1.4455733172820624	3.499979963165855
H	-4.043540190684346	2.4392627927179378	3.499998293165855
H	-6.516235850684345	2.407523112717938	3.500009463165855
H	-8.619206730684345	1.1302766427179378	3.499992673165855
H	-8.585351390684345	-1.3598249372820623	3.499988433165855
H	-6.4479450206843465	-2.5791812672820624	3.500015393165855
H	-3.9759798406843454	-2.543504077282062	3.499999183165855
H	0.9797309693156547	-2.474718457282062	3.4999853231658546
H	0.9155550593156548	2.5017880527179375	3.500008513165855
C	5.8489907793156535	1.4703036627179378	3.5000196131658545
C	7.059223379315655	0.7899098427179376	3.4999912231658548
C	7.076871219315655	-0.6082712572820624	3.500007143165855
C	5.884133629315655	-1.3188030572820622	3.4999815231658546
H	-1.5758843806843454	2.474186892717938	3.500005383165855
H	-1.5097217106843455	-2.512217537282062	3.4999918231658547
H	5.8092434293156545	2.553145402717938	3.500000343165855
H	7.991963619315654	1.3445310027179378	3.4999957631658547
H	8.023256219315655	-1.1392849472820623	3.4999998831658545
H	5.871401069315655	-2.4022989072820624	3.4999983431658546
O	3.361151219315655	2.755236442717938	3.499974183165855
O	3.429717759315655	-2.665850787282062	3.500014733165855
