84
8b TS90.0anti
C	-7.646244208690947	-0.8162885493567171	-1.134682772687195e-05
C	-7.665638028690946	0.612531390643283	-7.94682772687195e-06
C	-6.500724498690946	1.321775250643283	-1.6868277268719515e-06
C	-5.232731568690946	0.6561016006432829	1.381317227312805e-05
C	-5.213168828690946	-0.793296219356717	-1.0926827726871951e-05
C	-6.462417468690946	-1.4934306593567168	9.103172273128049e-06
C	-4.028726378690946	1.352768790643283	-1.7468277268719515e-06
C	-2.787384728690946	0.689959980643283	9.583172273128049e-06
C	-2.768040218690946	-0.7608498493567171	-2.326682772687195e-05
C	-3.9908419886909456	-1.457028789356717	1.4213172273128049e-05
C	-1.5631802486909459	1.387958510643283	-1.0068277268719514e-06
C	-0.34303220869094586	0.7223596606432829	1.1317227312804858e-07
C	-0.32402281869094574	-0.728400019356717	-7.296827726871952e-06
C	-1.5259364086909457	-1.426063209356717	1.845317227312805e-05
C	0.9022129713090541	1.416977400643283	7.0731722731280485e-06
C	2.097832461309054	0.749474070643283	-1.6166827726871952e-05
C	2.116417571309054	-0.692624169356717	1.542317227312805e-05
C	0.938517701309054	-1.390639369356717	1.5731722731280484e-06
C	3.3621178513090544	1.534609780643283	3.243317227312805e-05
C	4.641377761309053	0.764064260643283	-4.359682772687195e-05
C	4.659216811309054	-0.643076549356717	3.944317227312805e-05
C	3.3999933713090544	-1.4455800193567172	-2.003682772687195e-05
H	-4.043540298690946	2.439256090643283	-1.7068277268719515e-06
H	-6.516235958690945	2.407516410643283	9.463172273128048e-06
H	-8.619206838690946	1.130269940643283	-7.326827726871952e-06
H	-8.585351498690946	-1.3598316393567171	-1.156682772687195e-05
H	-6.447945128690947	-2.5791879693567172	1.5393172273128048e-05
H	-3.975979948690946	-2.543510779356717	-8.168277268719514e-07
H	0.9797308613090543	-2.474725159356717	-1.467682772687195e-05
H	0.9155549513090544	2.5017813506432827	8.513172273128049e-06
C	5.848990671309053	1.470296960643283	1.9613172273128048e-05
C	7.059223271309055	0.7899031406432829	-8.776827726871951e-06
C	7.076871111309055	-0.6082779593567171	7.143172273128049e-06
C	5.884133521309055	-1.318809759356717	-1.847682772687195e-05
H	-1.5758844886909458	2.474180190643283	5.383172273128049e-06
H	-1.5097218186909458	-2.512224239356717	-8.17682772687195e-06
H	5.809243321309054	2.553138700643283	3.4317227312804857e-07
H	7.991963511309054	1.344524300643283	-4.236827726871952e-06
H	8.023256111309054	-1.1392916493567171	-1.1682772687195143e-07
H	5.871400961309055	-2.402305609356717	-1.6568277268719515e-06
O	3.3611511113090544	2.755229740643283	-2.5816827726871953e-05
O	3.4297176513090544	-2.665857489356717	1.4733172273128049e-05
C	0.009392087912337223	-0.7160362342923329	-18.53516864080971
C	-0.009331511049015247	0.7127924842059103	-18.535847790247722
C	-0.018428660367247926	1.4066592108557345	-17.361745327561227
C	-0.009506587693771983	0.7244943135112929	-16.102579362120288
C	0.00950793900496111	-0.724910686853831	-16.102000812099288
C	0.018445001479414545	-1.408565473349523	-17.360311847111305
C	-0.018410463170263534	1.40527488112301	-14.889553306680703
C	-0.009526321663298632	0.7263234041101279	-13.656998815123265
C	0.00951477356558687	-0.7244903998649949	-13.656656969235645
C	0.01838711001591789	-1.4045369339899234	-14.888471598021159
C	-0.018449140909615858	1.4081704942853228	-12.423757765789155
C	-0.00952187839845866	0.7267071349550129	-11.212431607187465
C	0.00949306457322794	-0.724052472273434	-11.212424195751709
C	0.018400156927987424	-1.4058563934621255	-12.423371875021228
C	-0.01841434927334359	1.404898242525347	-9.958195940074365
C	-0.009441989592410072	0.7218522676932824	-8.771421170374351
C	0.009420423123899685	-0.720242340319956	-8.771724565170246
C	0.01837584344870551	-1.4027121688664934	-9.958665194241197
C	-0.01955857302498004	1.4902959240173885	-7.49696142811432
C	-0.009169272693839431	0.7031308003567863	-6.22790293772199
C	0.009183640477839625	-0.7040032793966624	-6.228494497126163
C	0.01953948100905977	-1.4898778630700602	-7.498120186078777
H	-0.03264551943538819	2.4917697630432194	-14.890136420200204
H	-0.032665171276387316	2.492417070024684	-17.363035693321045
H	-0.01627787389494614	1.2429298477974164	-19.482554083312664
H	0.01635133846362011	-1.247187791926787	-19.481314075968704
H	0.03266410715353392	-2.494326100216218	-17.36006072374292
H	0.03263709369241572	-2.4910269406076075	-14.887840299084623
H	0.03260017916974069	-2.4871514570705973	-9.931653652747904
H	-0.03262392341686118	2.4893413236299113	-9.930647614987441
C	-0.018276596107623413	1.3934269591792754	-5.0111441938789
C	-0.009127720215912348	0.6973014045816344	-3.8099263920173927
C	0.009174906385675082	-0.7008711191068251	-3.810591801252442
C	0.01830351148389705	-1.3956609355261878	-5.012532805476668
H	-0.032686705159668185	2.4943720908483447	-12.422234859028938
H	0.0326577672498845	-2.4920430557744133	-12.42138393853149
H	-0.03244886690550422	2.4766036803568907	-5.0367063441978015
H	-0.016237500362093035	1.239612455873668	-2.8700023732113955
H	0.016300574198855448	-1.2441871809602223	-2.871242564261504
H	0.03247779625983063	-2.4788043610718193	-5.039454630872715
O	-0.03549004343078107	2.7107198769390255	-7.481941837057042
O	0.03549487707416557	-2.7103356773492697	-7.4843802180550565
