60
106a cofacial 3.5A
N	-0.09762474415753264	1.946929464186357	-5.726176278266301e-07
C	1.0808418558424675	1.225323074186357	6.39738237217337e-06
C	0.6905335058424674	-0.18372795581364298	-1.061261762782663e-05
C	-0.6686112841575325	-0.2519045458136431	-1.2026176278266299e-06
C	-1.1979136041575327	1.110999454186357	-5.83261762782663e-06
N	2.2452926958424673	1.7672050641863568	-2.3526176278266303e-06
C	3.3777582958424675	0.955113474186357	-7.49261762782663e-06
C	3.3827446958424674	-0.45935320581364314	-2.58261762782663e-06
S	1.8940689958424675	-1.4432581458136429	-1.53261762782663e-06
N	-2.4107846941575324	1.533712914186357	3.85738237217337e-06
C	-3.456324154157533	0.612271964186357	3.90738237217337e-06
C	-3.3198628241575325	-0.795572785813643	4.0273823721733705e-06
S	-1.7401735541575327	-1.625596815813643	1.5738237217337004e-07
C	4.621064565842468	1.611983584186357	5.02738237217337e-06
C	5.815819595842468	0.910641774186357	1.6573823721733699e-06
C	5.801672055842467	-0.485691915813643	-5.5261762782663e-07
C	4.589207105842467	-1.163534625813643	4.82738237217337e-06
C	-4.759071694157532	1.141607584186357	5.4738237217337e-07
C	-5.877781014157533	0.32433724418635695	-8.326176278266299e-07
C	-5.724090694157532	-1.063625795813643	6.74738237217337e-06
C	-4.449908124157533	-1.616838325813643	-3.00261762782663e-06
H	-0.14816518415753266	2.9533124541863573	3.63738237217337e-06
H	-4.847599754157532	2.222162914186357	8.8738237217337e-07
H	-6.869340074157533	0.764314354186357	1.32738237217337e-06
H	-6.591801084157533	-1.714464605813643	-5.426176278266299e-07
H	-4.328273514157532	-2.6959835358136433	2.97738237217337e-06
H	4.575973725842467	-2.249445555813643	1.60738237217337e-06
H	6.730135065842468	-1.0464232058136431	4.99738237217337e-06
H	6.758413425842468	1.447488644186357	3.51738237217337e-06
H	4.6012943858424675	2.6959737141863567	1.2738237217337e-07
N	-0.09762524638445749	1.946928810395809	3.4999994273822748
C	1.0808413536155426	1.2253224203958089	3.500006397382275
C	0.6905330036155426	-0.18372860960419124	3.499989387382275
C	-0.6686117863844573	-0.25190519960419133	3.499998797382275
C	-1.1979141063844576	1.110998800395809	3.4999941673822748
N	2.2452921936155423	1.7672044103958087	3.499997647382275
C	3.3777577936155425	0.9551128203958087	3.499992507382275
C	3.3827441936155425	-0.4593538596041914	3.499997417382275
S	1.8940684936155425	-1.443258799604191	3.499998467382275
N	-2.4107851963844573	1.5337122603958089	3.500003857382275
C	-3.456324656384458	0.6122713103958087	3.500003907382275
C	-3.3198633263844575	-0.7955734396041912	3.500004027382275
S	-1.7401740563844577	-1.625597469604191	3.5000001573822748
C	4.621064063615543	1.6119829303958089	3.500005027382275
C	5.815819093615543	0.9106411203958087	3.500001657382275
C	5.801671553615542	-0.48569256960419127	3.499999447382275
C	4.589206603615542	-1.1635352796041911	3.500004827382275
C	-4.759072196384457	1.141606930395809	3.500000547382275
C	-5.877781516384458	0.3243365903958087	3.499999167382275
C	-5.724091196384457	-1.0636264496041912	3.500006747382275
C	-4.449908626384458	-1.616838979604191	3.499996997382275
H	-0.1481656863844575	2.953311800395809	3.500003637382275
H	-4.847600256384457	2.2221622603958084	3.5000008873822748
H	-6.869340576384458	0.7643137003958087	3.5000013273822748
H	-6.591801586384458	-1.7144652596041912	3.499999457382275
H	-4.328274016384457	-2.6959841896041916	3.500002977382275
H	4.575973223615542	-2.249446209604191	3.500001607382275
H	6.730134563615543	-1.0464238596041913	3.500004997382275
H	6.758412923615543	1.4474879903958089	3.5000035173822748
H	4.601293883615543	2.6959730603958083	3.500000127382275
