60
106a PD short
N	-0.09762474415753264	1.946929464186357	-5.726176278266301e-07
C	1.0808418558424675	1.225323074186357	6.39738237217337e-06
C	0.6905335058424674	-0.18372795581364298	-1.061261762782663e-05
C	-0.6686112841575325	-0.2519045458136431	-1.2026176278266299e-06
C	-1.1979136041575327	1.110999454186357	-5.83261762782663e-06
N	2.2452926958424673	1.7672050641863568	-2.3526176278266303e-06
C	3.3777582958424675	0.955113474186357	-7.49261762782663e-06
C	3.3827446958424674	-0.45935320581364314	-2.58261762782663e-06
S	1.8940689958424675	-1.4432581458136429	-1.53261762782663e-06
N	-2.4107846941575324	1.533712914186357	3.85738237217337e-06
C	-3.456324154157533	0.612271964186357	3.90738237217337e-06
C	-3.3198628241575325	-0.795572785813643	4.0273823721733705e-06
S	-1.7401735541575327	-1.625596815813643	1.5738237217337004e-07
C	4.621064565842468	1.611983584186357	5.02738237217337e-06
C	5.815819595842468	0.910641774186357	1.6573823721733699e-06
C	5.801672055842467	-0.485691915813643	-5.5261762782663e-07
C	4.589207105842467	-1.163534625813643	4.82738237217337e-06
C	-4.759071694157532	1.141607584186357	5.4738237217337e-07
C	-5.877781014157533	0.32433724418635695	-8.326176278266299e-07
C	-5.724090694157532	-1.063625795813643	6.74738237217337e-06
C	-4.449908124157533	-1.616838325813643	-3.00261762782663e-06
H	-0.14816518415753266	2.9533124541863573	3.63738237217337e-06
H	-4.847599754157532	2.222162914186357	8.8738237217337e-07
H	-6.869340074157533	0.764314354186357	1.32738237217337e-06
H	-6.591801084157533	-1.714464605813643	-5.426176278266299e-07
H	-4.328273514157532	-2.6959835358136433	2.97738237217337e-06
H	4.575973725842467	-2.249445555813643	1.60738237217337e-06
H	6.730135065842468	-1.0464232058136431	4.99738237217337e-06
H	6.758413425842468	1.447488644186357	3.51738237217337e-06
H	4.6012943858424675	2.6959737141863567	1.2738237217337e-07
N	-0.008072281452014895	0.16126121291885476	3.49999910667465
C	1.1703943185479853	-0.5603451770811453	3.50000607667465
C	0.7800859685479852	-1.969396207081145	3.49998906667465
C	-0.5790588214520147	-2.0375727970811455	3.49999847667465
C	-1.108361141452015	-0.6746687970811452	3.49999384667465
N	2.334845158547985	-0.018463187081145468	3.49999732667465
C	3.467310758547985	-0.8305547770811453	3.49999218667465
C	3.472297158547985	-2.2450214570811453	3.49999709667465
S	1.9836214585479852	-3.2289263970811453	3.49999814667465
N	-2.3212322314520146	-0.25195533708114526	3.50000353667465
C	-3.366771691452015	-1.1733962870811452	3.50000358667465
C	-3.2303103614520148	-2.581241037081145	3.50000370667465
S	-1.650621091452015	-3.4112650670811453	3.49999983667465
C	4.710617028547985	-0.17368466708114527	3.50000470667465
C	5.905372058547986	-0.8750264770811453	3.50000133667465
C	5.891224518547984	-2.2713601670811454	3.4999991266746497
C	4.678759568547985	-2.9492028770811456	3.50000450667465
C	-4.669519231452014	-0.6440606670811452	3.50000022667465
C	-5.788228551452015	-1.4613310070811452	3.49999884667465
C	-5.634538231452014	-2.849294047081145	3.50000642667465
C	-4.360355661452015	-3.4025065770811453	3.49999667667465
H	-0.05861272145201492	1.1676442029188552	3.50000331667465
H	-4.758047291452014	0.4364946629188545	3.50000056667465
H	-6.779787611452015	-1.021353897081145	3.50000100667465
H	-6.502248621452015	-3.5001328570811454	3.49999913667465
H	-4.238721051452014	-4.481651787081145	3.50000265667465
H	4.665526188547985	-4.035113807081145	3.50000128667465
H	6.819687528547986	-2.8320914570811455	3.5000046766746498
H	6.847965888547986	-0.33817960708114525	3.50000319667465
H	4.690846848547985	0.9103054629188544	3.49999980667465
