60
106a cofacial 4.0A
N	-0.09762474415753264	1.946929464186357	-5.726176278266301e-07
C	1.0808418558424675	1.225323074186357	6.39738237217337e-06
C	0.6905335058424674	-0.18372795581364298	-1.061261762782663e-05
C	-0.6686112841575325	-0.2519045458136431	-1.2026176278266299e-06
C	-1.1979136041575327	1.110999454186357	-5.83261762782663e-06
N	2.2452926958424673	1.7672050641863568	-2.3526176278266303e-06
C	3.3777582958424675	0.955113474186357	-7.49261762782663e-06
C	3.3827446958424674	-0.45935320581364314	-2.58261762782663e-06
S	1.8940689958424675	-1.4432581458136429	-1.53261762782663e-06
N	-2.4107846941575324	1.533712914186357	3.85738237217337e-06
C	-3.456324154157533	0.612271964186357	3.90738237217337e-06
C	-3.3198628241575325	-0.795572785813643	4.0273823721733705e-06
S	-1.7401735541575327	-1.625596815813643	1.5738237217337004e-07
C	4.621064565842468	1.611983584186357	5.02738237217337e-06
C	5.815819595842468	0.910641774186357	1.6573823721733699e-06
C	5.801672055842467	-0.485691915813643	-5.5261762782663e-07
C	4.589207105842467	-1.163534625813643	4.82738237217337e-06
C	-4.759071694157532	1.141607584186357	5.4738237217337e-07
C	-5.877781014157533	0.32433724418635695	-8.326176278266299e-07
C	-5.724090694157532	-1.063625795813643	6.74738237217337e-06
C	-4.449908124157533	-1.616838325813643	-3.00261762782663e-06
H	-0.14816518415753266	2.9533124541863573	3.63738237217337e-06
H	-4.847599754157532	2.222162914186357	8.8738237217337e-07
H	-6.869340074157533	0.764314354186357	1.32738237217337e-06
H	-6.591801084157533	-1.714464605813643	-5.426176278266299e-07
H	-4.328273514157532	-2.6959835358136433	2.97738237217337e-06
H	4.575973725842467	-2.249445555813643	1.60738237217337e-06
H	6.730135065842468	-1.0464232058136431	4.99738237217337e-06
H	6.758413425842468	1.447488644186357	3.51738237217337e-06
H	4.6012943858424675	2.6959737141863567	1.2738237217337e-07
N	-0.09762531813116104	1.946928716997159	3.999999427382261
C	1.080841281868839	1.225322326997159	4.000006397382261
C	0.690532931868839	-0.183728703002841	3.999989387382261
C	-0.6686118581311609	-0.2519052930028411	3.9999987973822613
C	-1.197914178131161	1.110998706997159	3.999994167382261
N	2.245292121868839	1.7672043169971587	3.999997647382261
C	3.3777577218688393	0.955112726997159	3.9999925073822613
C	3.382744121868839	-0.45935395300284115	3.9999974173822612
S	1.894068421868839	-1.443258893002841	3.999998467382261
N	-2.4107852681311606	1.533712166997159	4.000003857382261
C	-3.456324728131161	0.612271216997159	4.000003907382261
C	-3.3198633981311607	-0.795573533002841	4.0000040273822615
S	-1.7401741281311611	-1.625597563002841	4.000000157382261
C	4.621063991868839	1.611982836997159	4.000005027382261
C	5.8158190218688395	0.910641026997159	4.000001657382261
C	5.801671481868838	-0.48569266300284103	3.9999994473822613
C	4.589206531868839	-1.163535373002841	4.000004827382261
C	-4.759072268131161	1.141606836997159	4.000000547382261
C	-5.877781588131161	0.32433649699715894	3.9999991673822612
C	-5.72409126813116	-1.063626543002841	4.000006747382261
C	-4.4499086981311615	-1.616839073002841	3.999996997382261
H	-0.14816575813116106	2.9533117069971593	4.000003637382261
H	-4.84760032813116	2.2221621669971587	4.000000887382261
H	-6.869340648131161	0.764313606997159	4.000001327382261
H	-6.591801658131161	-1.714465353002841	3.9999994573822613
H	-4.3282740881311605	-2.6959842830028413	4.000002977382261
H	4.575973151868839	-2.249446303002841	4.000001607382261
H	6.7301344918688395	-1.0464239530028412	4.000004997382261
H	6.758412851868839	1.447487896997159	4.000003517382261
H	4.601293811868839	2.6959729669971586	4.000000127382261
