60
106a TL45.0anti
N	-0.09762474415753264	1.946929464186357	-5.726176278266301e-07
C	1.0808418558424675	1.225323074186357	6.39738237217337e-06
C	0.6905335058424674	-0.18372795581364298	-1.061261762782663e-05
C	-0.6686112841575325	-0.2519045458136431	-1.2026176278266299e-06
C	-1.1979136041575327	1.110999454186357	-5.83261762782663e-06
N	2.2452926958424673	1.7672050641863568	-2.3526176278266303e-06
C	3.3777582958424675	0.955113474186357	-7.49261762782663e-06
C	3.3827446958424674	-0.45935320581364314	-2.58261762782663e-06
S	1.8940689958424675	-1.4432581458136429	-1.53261762782663e-06
N	-2.4107846941575324	1.533712914186357	3.85738237217337e-06
C	-3.456324154157533	0.612271964186357	3.90738237217337e-06
C	-3.3198628241575325	-0.795572785813643	4.0273823721733705e-06
S	-1.7401735541575327	-1.625596815813643	1.5738237217337004e-07
C	4.621064565842468	1.611983584186357	5.02738237217337e-06
C	5.815819595842468	0.910641774186357	1.6573823721733699e-06
C	5.801672055842467	-0.485691915813643	-5.5261762782663e-07
C	4.589207105842467	-1.163534625813643	4.82738237217337e-06
C	-4.759071694157532	1.141607584186357	5.4738237217337e-07
C	-5.877781014157533	0.32433724418635695	-8.326176278266299e-07
C	-5.724090694157532	-1.063625795813643	6.74738237217337e-06
C	-4.449908124157533	-1.616838325813643	-3.00261762782663e-06
H	-0.14816518415753266	2.9533124541863573	3.63738237217337e-06
H	-4.847599754157532	2.222162914186357	8.8738237217337e-07
H	-6.869340074157533	0.764314354186357	1.32738237217337e-06
H	-6.591801084157533	-1.714464605813643	-5.426176278266299e-07
H	-4.328273514157532	-2.6959835358136433	2.97738237217337e-06
H	4.575973725842467	-2.249445555813643	1.60738237217337e-06
H	6.730135065842468	-1.0464232058136431	4.99738237217337e-06
H	6.758413425842468	1.447488644186357	3.51738237217337e-06
H	4.6012943858424675	2.6959737141863567	1.2738237217337e-07
N	-0.06902739064842489	1.3766868469783065	5.676905321758752
C	1.0980005840749367	0.8831659595489346	5.125559559702864
C	0.6873331325694244	-0.1199258066022684	4.144272360934455
C	-0.6718115242380723	-0.1881050523941689	4.14426895511952
C	-1.180755909484174	0.7688629485832241	5.125521275894671
N	2.269535071579894	1.2838004427501533	5.4669988740710505
C	3.3892696376432263	0.7255649064772977	4.853371402909902
C	3.373527894929165	-0.2755838499578494	3.8542747018524057
S	1.8715300346200694	-0.9938457117489677	3.2121480817444628
N	-2.386541858546859	1.0502991229473637	5.467013406285888
C	-3.444813919355779	0.3827454700469876	4.8533045562889185
C	-3.329080487276919	-0.611786237573662	3.8542244844606652
S	-1.7627135768690014	-1.1761632157068247	3.2120941171068202
C	4.641287161179049	1.2087331430908377	5.273239713784234
C	5.824888145730587	0.7298023308787152	4.735620980239538
C	5.790291953836787	-0.2587864658067308	3.750002787785472
C	4.568786432804242	-0.7563607311616274	3.314243557187735
C	-4.738848518844379	0.7383455783741838	5.273269280845862
C	-5.86871042466749	0.14345713133427554	4.735718203599523
C	-5.735469093243435	-0.8367543018697535	3.75007404430995
C	-4.470328780729727	-1.2096647595326098	3.314249417476791
H	-0.10478510075621716	2.0883030888437917	6.389425334906136
H	-4.811479305018077	1.5019102209619746	6.039513918078944
H	-6.853094287860131	0.4403612470004509	5.081558604338242
H	-6.6120781743188	-1.3101537451459624	3.321166171158506
H	-4.364594886889001	-1.9717506421687359	2.5478325506010995
H	4.539651982825976	-1.5252052787242312	2.5478187952196887
H	6.7098571233477635	-0.6420953496469121	3.321123621649395
H	6.774655248352849	1.1236145746767658	5.081369527015347
H	4.637413871617655	1.975740230374308	6.039471132915269
