60
106a cofacial 5.0A
N	-0.09762474415753264	1.946929464186357	-5.726176278266301e-07
C	1.0808418558424675	1.225323074186357	6.39738237217337e-06
C	0.6905335058424674	-0.18372795581364298	-1.061261762782663e-05
C	-0.6686112841575325	-0.2519045458136431	-1.2026176278266299e-06
C	-1.1979136041575327	1.110999454186357	-5.83261762782663e-06
N	2.2452926958424673	1.7672050641863568	-2.3526176278266303e-06
C	3.3777582958424675	0.955113474186357	-7.49261762782663e-06
C	3.3827446958424674	-0.45935320581364314	-2.58261762782663e-06
S	1.8940689958424675	-1.4432581458136429	-1.53261762782663e-06
N	-2.4107846941575324	1.533712914186357	3.85738237217337e-06
C	-3.456324154157533	0.612271964186357	3.90738237217337e-06
C	-3.3198628241575325	-0.795572785813643	4.0273823721733705e-06
S	-1.7401735541575327	-1.625596815813643	1.5738237217337004e-07
C	4.621064565842468	1.611983584186357	5.02738237217337e-06
C	5.815819595842468	0.910641774186357	1.6573823721733699e-06
C	5.801672055842467	-0.485691915813643	-5.5261762782663e-07
C	4.589207105842467	-1.163534625813643	4.82738237217337e-06
C	-4.759071694157532	1.141607584186357	5.4738237217337e-07
C	-5.877781014157533	0.32433724418635695	-8.326176278266299e-07
C	-5.724090694157532	-1.063625795813643	6.74738237217337e-06
C	-4.449908124157533	-1.616838325813643	-3.00261762782663e-06
H	-0.14816518415753266	2.9533124541863573	3.63738237217337e-06
H	-4.847599754157532	2.222162914186357	8.8738237217337e-07
H	-6.869340074157533	0.764314354186357	1.32738237217337e-06
H	-6.591801084157533	-1.714464605813643	-5.426176278266299e-07
H	-4.328273514157532	-2.6959835358136433	2.97738237217337e-06
H	4.575973725842467	-2.249445555813643	1.60738237217337e-06
H	6.730135065842468	-1.0464232058136431	4.99738237217337e-06
H	6.758413425842468	1.447488644186357	3.51738237217337e-06
H	4.6012943858424675	2.6959737141863567	1.2738237217337e-07
N	-0.09762546162456814	1.9469285301998596	4.9999994273822335
C	1.080841138375432	1.2253221401998595	5.000006397382234
C	0.690532788375432	-0.1837288898001405	4.999989387382233
C	-0.6686120016245679	-0.2519054798001406	4.999998797382234
C	-1.1979143216245682	1.1109985201998596	4.9999941673822335
N	2.2452919783754317	1.7672041301998593	4.999997647382234
C	3.377757578375432	0.9551125401998595	4.999992507382234
C	3.382743978375432	-0.45935413980014067	4.999997417382233
S	1.894068278375432	-1.4432590798001403	4.999998467382234
N	-2.410785411624568	1.5337119801998595	5.000003857382233
C	-3.4563248716245685	0.6122710301998595	5.000003907382234
C	-3.319863541624568	-0.7955737198001405	5.000004027382234
S	-1.7401742716245683	-1.6255977498001404	5.0000001573822335
C	4.6210638483754325	1.6119826501998595	5.000005027382233
C	5.815818878375433	0.9106408401998595	5.000001657382233
C	5.8016713383754315	-0.48569284980014055	4.999999447382233
C	4.589206388375432	-1.1635355598001405	5.0000048273822335
C	-4.759072411624567	1.1416066501998596	5.000000547382234
C	-5.877781731624568	0.3243363101998594	4.999999167382233
C	-5.724091411624567	-1.0636267298001405	5.000006747382233
C	-4.449908841624568	-1.6168392598001404	4.999996997382234
H	-0.14816590162456816	2.95331152019986	5.000003637382234
H	-4.847600471624567	2.2221619801998593	5.0000008873822335
H	-6.869340791624568	0.7643134201998595	5.0000013273822335
H	-6.591801801624568	-1.7144655398001405	4.999999457382233
H	-4.328274231624567	-2.6959844698001407	5.000002977382233
H	4.575973008375432	-2.2494464898001403	5.0000016073822335
H	6.730134348375433	-1.0464241398001406	5.000004997382233
H	6.758412708375433	1.4474877101998596	5.0000035173822335
H	4.601293668375432	2.695972780199859	5.000000127382234
