60
106a TS90.0
N	-0.09762474415753264	1.946929464186357	-5.726176278266301e-07
C	1.0808418558424675	1.225323074186357	6.39738237217337e-06
C	0.6905335058424674	-0.18372795581364298	-1.061261762782663e-05
C	-0.6686112841575325	-0.2519045458136431	-1.2026176278266299e-06
C	-1.1979136041575327	1.110999454186357	-5.83261762782663e-06
N	2.2452926958424673	1.7672050641863568	-2.3526176278266303e-06
C	3.3777582958424675	0.955113474186357	-7.49261762782663e-06
C	3.3827446958424674	-0.45935320581364314	-2.58261762782663e-06
S	1.8940689958424675	-1.4432581458136429	-1.53261762782663e-06
N	-2.4107846941575324	1.533712914186357	3.85738237217337e-06
C	-3.456324154157533	0.612271964186357	3.90738237217337e-06
C	-3.3198628241575325	-0.795572785813643	4.0273823721733705e-06
S	-1.7401735541575327	-1.625596815813643	1.5738237217337004e-07
C	4.621064565842468	1.611983584186357	5.02738237217337e-06
C	5.815819595842468	0.910641774186357	1.6573823721733699e-06
C	5.801672055842467	-0.485691915813643	-5.5261762782663e-07
C	4.589207105842467	-1.163534625813643	4.82738237217337e-06
C	-4.759071694157532	1.141607584186357	5.4738237217337e-07
C	-5.877781014157533	0.32433724418635695	-8.326176278266299e-07
C	-5.724090694157532	-1.063625795813643	6.74738237217337e-06
C	-4.449908124157533	-1.616838325813643	-3.00261762782663e-06
H	-0.14816518415753266	2.9533124541863573	3.63738237217337e-06
H	-4.847599754157532	2.222162914186357	8.8738237217337e-07
H	-6.869340074157533	0.764314354186357	1.32738237217337e-06
H	-6.591801084157533	-1.714464605813643	-5.426176278266299e-07
H	-4.328273514157532	-2.6959835358136433	2.97738237217337e-06
H	4.575973725842467	-2.249445555813643	1.60738237217337e-06
H	6.730135065842468	-1.0464232058136431	4.99738237217337e-06
H	6.758413425842468	1.447488644186357	3.51738237217337e-06
H	4.6012943858424675	2.6959737141863567	1.2738237217337e-07
N	-0.0976408346083046	1.9469269164614675	9.692448148085557
C	-0.058592906940619485	1.1681773681122487	10.833291568430225
C	0.010932611875221035	-0.21781246391685483	10.3728963021009
C	0.010923909726579677	-0.2178268141893152	9.012042670215727
C	-0.05857862076212962	1.1681366746694877	8.551670141712101
N	-0.08277041391007968	1.6504482779138991	12.023422682070843
C	-0.03929927952912699	0.7837423615857767	13.113790602011616
C	0.03146698396380228	-0.627425382518822	13.047922650857219
S	0.07695094881501145	-1.5343904488843627	11.51183351019449
N	-0.08277739110978605	1.650463420148789	7.361494406609986
C	-0.039305442296714024	0.783637646195884	6.271113989493401
C	0.03146418893291402	-0.627501618135179	6.336887621343519
S	0.0769531239459181	-1.5344675614246714	7.873019651687895
C	-0.06905247410218904	1.3767670736326845	14.388437714315195
C	-0.030967089903419634	0.6174169490973974	15.546564135762532
C	0.03885117889855836	-0.7747057589130915	15.462494510421452
C	0.0697130246988078	-1.3901941985269188	14.217599526222735
C	-0.06905043262978615	1.3768158098041154	4.996515129711793
C	-0.030971756834538795	0.6175597197262628	3.8382744140443386
C	0.0388390660161628	-0.774609973632378	3.9222512491348365
C	0.06971992758838927	-1.3901755158594253	5.167125042234821
H	-0.14811611753280238	2.9533131741652734	9.692379060617881
H	-0.1233276234343186	2.459088860331001	4.962221263489309
H	-0.05547139042563307	1.1060359734401282	2.8699976228796062
H	0.06922762023133967	-1.3804080875054143	3.0230306652012287
H	0.12400332315428521	-2.4726984668097187	5.2345545334331325
H	0.12400570551601127	-2.4727186188280634	14.149991431208822
H	0.06922554075400164	-1.380477228680806	16.361706090146416
H	-0.05545990889716334	1.1057633101409394	16.514864514601452
H	-0.12332375680456162	2.459026933605529	14.422987466037267
