60
106a TL45.0
N	-0.09762474415753264	1.946929464186357	-5.726176278266301e-07
C	1.0808418558424675	1.225323074186357	6.39738237217337e-06
C	0.6905335058424674	-0.18372795581364298	-1.061261762782663e-05
C	-0.6686112841575325	-0.2519045458136431	-1.2026176278266299e-06
C	-1.1979136041575327	1.110999454186357	-5.83261762782663e-06
N	2.2452926958424673	1.7672050641863568	-2.3526176278266303e-06
C	3.3777582958424675	0.955113474186357	-7.49261762782663e-06
C	3.3827446958424674	-0.45935320581364314	-2.58261762782663e-06
S	1.8940689958424675	-1.4432581458136429	-1.53261762782663e-06
N	-2.4107846941575324	1.533712914186357	3.85738237217337e-06
C	-3.456324154157533	0.612271964186357	3.90738237217337e-06
C	-3.3198628241575325	-0.795572785813643	4.0273823721733705e-06
S	-1.7401735541575327	-1.625596815813643	1.5738237217337004e-07
C	4.621064565842468	1.611983584186357	5.02738237217337e-06
C	5.815819595842468	0.910641774186357	1.6573823721733699e-06
C	5.801672055842467	-0.485691915813643	-5.5261762782663e-07
C	4.589207105842467	-1.163534625813643	4.82738237217337e-06
C	-4.759071694157532	1.141607584186357	5.4738237217337e-07
C	-5.877781014157533	0.32433724418635695	-8.326176278266299e-07
C	-5.724090694157532	-1.063625795813643	6.74738237217337e-06
C	-4.449908124157533	-1.616838325813643	-3.00261762782663e-06
H	-0.14816518415753266	2.9533124541863573	3.63738237217337e-06
H	-4.847599754157532	2.222162914186357	8.8738237217337e-07
H	-6.869340074157533	0.764314354186357	1.32738237217337e-06
H	-6.591801084157533	-1.714464605813643	-5.426176278266299e-07
H	-4.328273514157532	-2.6959835358136433	2.97738237217337e-06
H	4.575973725842467	-2.249445555813643	1.60738237217337e-06
H	6.730135065842468	-1.0464232058136431	4.99738237217337e-06
H	6.758413425842468	1.447488644186357	3.51738237217337e-06
H	4.6012943858424675	2.6959737141863567	1.2738237217337e-07
N	-0.06902610821337533	1.3766885164306448	-3.2603349004375666
C	1.0980018665099862	0.8831676290012731	-3.8116806624934547
C	0.6873344150044739	-0.1199241371499299	-4.792967861261864
C	-0.6718102418030228	-0.1881033829418304	-4.7929712670767985
C	-1.1807546270491245	0.7688646180355626	-3.8117189463016476
N	2.2695363540149436	1.2838021122024916	-3.4702413481252683
C	3.389270920078276	0.7255665759296361	-4.083868819286415
C	3.373529177364215	-0.27558218050551087	-5.082965520343913
S	1.8715313170551189	-0.9938440422966293	-5.7250921404518555
N	-2.3865405761118095	1.050300792399702	-3.47022681591043
C	-3.4448126369207293	0.38274713949932615	-4.0839356659074
C	-3.3290792048418694	-0.6117845681213235	-5.0830157377356535
S	-1.762712294433952	-1.1761615462544863	-5.7251461050894985
C	4.641288443614099	1.208734812543176	-3.6640005084120846
C	5.824889428165637	0.7298040003310536	-4.20161924195678
C	5.790293236271837	-0.2587847963543923	-5.1872374344108465
C	4.568787715239291	-0.7563590617092889	-5.622996665008584
C	-4.738847236409329	0.7383472478265223	-3.663970941350456
C	-5.86870914223244	0.14345880078661402	-4.201522018596796
C	-5.735467810808386	-0.836752632417415	-5.187166177886368
C	-4.470327498294678	-1.2096630900802714	-5.622990804719527
H	-0.10478381832116761	2.0883047582961303	-2.5478148872901825
H	-4.811478022583027	1.501911890414313	-2.8977263041173744
H	-6.853093005425081	0.4403629164527894	-3.855681617858076
H	-6.61207689188375	-1.310152075693624	-5.616074051037812
H	-4.364593604453951	-1.9717489727163975	-6.389407671595219
H	4.539653265261026	-1.5252036092718928	-6.38942142697663
H	6.709858405782813	-0.6420936801945736	-5.616116600546923
H	6.774656530787898	1.1236162441291042	-3.855870695180971
H	4.637415154052705	1.9757418998266463	-2.89776908928105
