60
106a PD long
N	-0.09762474415753264	1.946929464186357	-5.726176278266301e-07
C	1.0808418558424675	1.225323074186357	6.39738237217337e-06
C	0.6905335058424674	-0.18372795581364298	-1.061261762782663e-05
C	-0.6686112841575325	-0.2519045458136431	-1.2026176278266299e-06
C	-1.1979136041575327	1.110999454186357	-5.83261762782663e-06
N	2.2452926958424673	1.7672050641863568	-2.3526176278266303e-06
C	3.3777582958424675	0.955113474186357	-7.49261762782663e-06
C	3.3827446958424674	-0.45935320581364314	-2.58261762782663e-06
S	1.8940689958424675	-1.4432581458136429	-1.53261762782663e-06
N	-2.4107846941575324	1.533712914186357	3.85738237217337e-06
C	-3.456324154157533	0.612271964186357	3.90738237217337e-06
C	-3.3198628241575325	-0.795572785813643	4.0273823721733705e-06
S	-1.7401735541575327	-1.625596815813643	1.5738237217337004e-07
C	4.621064565842468	1.611983584186357	5.02738237217337e-06
C	5.815819595842468	0.910641774186357	1.6573823721733699e-06
C	5.801672055842467	-0.485691915813643	-5.5261762782663e-07
C	4.589207105842467	-1.163534625813643	4.82738237217337e-06
C	-4.759071694157532	1.141607584186357	5.4738237217337e-07
C	-5.877781014157533	0.32433724418635695	-8.326176278266299e-07
C	-5.724090694157532	-1.063625795813643	6.74738237217337e-06
C	-4.449908124157533	-1.616838325813643	-3.00261762782663e-06
H	-0.14816518415753266	2.9533124541863573	3.63738237217337e-06
H	-4.847599754157532	2.222162914186357	8.8738237217337e-07
H	-6.869340074157533	0.764314354186357	1.32738237217337e-06
H	-6.591801084157533	-1.714464605813643	-5.426176278266299e-07
H	-4.328273514157532	-2.6959835358136433	2.97738237217337e-06
H	4.575973725842467	-2.249445555813643	1.60738237217337e-06
H	6.730135065842468	-1.0464232058136431	4.99738237217337e-06
H	6.758413425842468	1.447488644186357	3.51738237217337e-06
H	4.6012943858424675	2.6959737141863567	1.2738237217337e-07
N	3.858618742910964	2.1453382902665092	3.5000000321395595
C	5.037085342910965	1.4237319002665092	3.5000070021395593
C	4.646776992910964	0.014680870266509162	3.499989992139559
C	3.2876322029109644	-0.05349571973349093	3.4999994021395593
C	2.758329882910964	1.3094082802665092	3.4999947721395595
N	6.201536182910964	1.965613890266509	3.499998252139559
C	7.334001782910964	1.1535223002665091	3.4999931121395593
C	7.338988182910964	-0.260944379733491	3.4999980221395592
S	5.850312482910964	-1.2448493197334907	3.499999072139559
N	1.5454587929109644	1.7321217402665092	3.500004462139559
C	0.499919332910964	0.8106807902665091	3.5000045121395593
C	0.6363806629109644	-0.5971639597334909	3.5000046321395595
S	2.216069932910964	-1.4271879897334907	3.5000007621395595
C	8.577308052910965	1.8103924102665092	3.500005632139559
C	9.772063082910964	1.1090506002665093	3.5000022621395592
C	9.757915542910963	-0.28728308973349087	3.5000000521395593
C	8.545450592910964	-0.9651257997334909	3.5000054321395595
C	-0.802828207089035	1.3400164102665093	3.5000011521395593
C	-1.9215375270890358	0.5227460702665091	3.4999997721395593
C	-1.767847207089035	-0.8652169697334909	3.5000073521395594
C	-0.49366463708903596	-1.4184294997334908	3.499997602139559
H	3.808078302910964	3.1517212802665093	3.500004242139559
H	-0.8913562670890348	2.420571740266509	3.5000014921395595
H	-2.913096587089036	0.9627231802665092	3.5000019321395595
H	-2.635557597089036	-1.5160557797334908	3.5000000621395593
H	-0.372030027089035	-2.4975747097334913	3.500003582139559
H	8.532217212910965	-2.051036729733491	3.500002212139559
H	10.686378552910965	-0.848014379733491	3.5000056021395594
H	10.714656912910964	1.6458974702665092	3.5000041221395595
H	8.557537872910965	2.8943825402665087	3.500000732139559
