54
51d cofacial 3.5A
C	-2.6783929420936503	-0.620216163527866	-4.269376459078335e-06
C	-3.2003207820936503	0.698969416472134	5.706235409216652e-07
S	-1.9317136820936502	1.934882456472134	-8.793764590783348e-07
C	-0.7037166420936503	0.6835245764721339	8.220623540921666e-06
C	-1.2454469220936502	-0.5892018435278661	-1.6893764590783346e-06
C	0.7136657779063497	0.673154406472134	-6.129376459078335e-06
C	1.2366786479063496	-0.607369003527866	-9.889376459078334e-06
S	-0.01344707209365037	-1.837356243527866	4.206235409216651e-07
S	1.9599011979063496	1.906372206472134	9.06235409216651e-08
C	3.2102532579063494	0.651982036472134	-1.7793764590783346e-06
C	2.66900350790635	-0.659394443527866	7.500623540921665e-06
C	4.58689236790635	0.8682385364721339	8.806235409216652e-07
C	5.43400180790635	-0.23332823352786602	-3.6393764590783345e-06
C	4.914877857906349	-1.536526563527866	8.290623540921665e-06
C	3.5460461679063497	-1.755247213527866	-3.889376459078335e-06
C	-4.57362022209365	0.9354629764721341	-5.293764590783348e-07
C	-5.43686332209365	-0.15350482352786604	6.890623540921665e-06
C	-4.936957752093651	-1.464200703527866	-7.739376459078334e-06
C	-3.5714859620936505	-1.703040023527866	6.6806235409216645e-06
H	-4.962410252093651	1.9483576064721342	4.540623540921665e-06
H	-6.50855409209365	0.014727856472133954	2.6506235409216654e-06
H	-5.62784021209365	-2.3006956335278663	2.6006235409216654e-06
H	-3.1918563520936503	-2.7197928235278663	-1.249376459078335e-06
H	3.1514526879063496	-2.7662874235278663	2.760623540921665e-06
H	5.593376507906349	-2.3830967735278663	3.4606235409216652e-06
H	6.50805062790635	-0.08089867352786603	2.890623540921665e-06
H	4.99059105790635	1.875284216472134	2.506235409216651e-07
C	-2.6783929558360984	-0.6202156133861024	3.4999957306234974
C	-3.2003207958360984	0.6989699666138975	3.5000005706234973
S	-1.931713695836098	1.9348830066138978	3.4999991206234973
C	-0.7037166558360982	0.6835251266138975	3.5000082206234975
C	-1.245446935836098	-0.5892012933861025	3.4999983106234973
C	0.7136657641639017	0.6731549566138976	3.499993870623497
C	1.2366786341639018	-0.6073684533861025	3.4999901106234974
S	-0.013447085836098322	-1.8373556933861024	3.5000004206234974
S	1.9599011841639018	1.9063727566138977	3.5000000906234976
C	3.2102532441639013	0.6519825866138976	3.4999982206234974
C	2.669003494163902	-0.6593938933861024	3.5000075006234974
C	4.5868923541639015	0.8682390866138975	3.5000008806234972
C	5.434001794163902	-0.2333276833861024	3.4999963606234976
C	4.914877844163901	-1.5365260133861023	3.5000082906234975
C	3.5460461541639017	-1.7552466633861024	3.4999961106234974
C	-4.573620235836098	0.9354635266138976	3.4999994706234974
C	-5.436863335836098	-0.15350427338610242	3.5000068906234976
C	-4.936957765836099	-1.4642001533861022	3.499992260623497
C	-3.5714859758360986	-1.7030394733861023	3.5000066806234975
H	-4.962410265836099	1.9483581566138979	3.500004540623497
H	-6.508554105836098	0.014728406613897568	3.5000026506234976
H	-5.627840225836098	-2.3006950833861026	3.5000026006234974
H	-3.1918563658360983	-2.7197922733861026	3.4999987506234973
H	3.1514526741639015	-2.7662868733861026	3.5000027606234974
H	5.593376494163901	-2.3830962233861026	3.5000034606234975
H	6.508050614163902	-0.08089812338610242	3.5000028906234975
H	4.990591044163902	1.8752847666138976	3.5000002506234975
