54
51d cofacial 4.5A
C	-2.6783929420936503	-0.620216163527866	-4.269376459078335e-06
C	-3.2003207820936503	0.698969416472134	5.706235409216652e-07
S	-1.9317136820936502	1.934882456472134	-8.793764590783348e-07
C	-0.7037166420936503	0.6835245764721339	8.220623540921666e-06
C	-1.2454469220936502	-0.5892018435278661	-1.6893764590783346e-06
C	0.7136657779063497	0.673154406472134	-6.129376459078335e-06
C	1.2366786479063496	-0.607369003527866	-9.889376459078334e-06
S	-0.01344707209365037	-1.837356243527866	4.206235409216651e-07
S	1.9599011979063496	1.906372206472134	9.06235409216651e-08
C	3.2102532579063494	0.651982036472134	-1.7793764590783346e-06
C	2.66900350790635	-0.659394443527866	7.500623540921665e-06
C	4.58689236790635	0.8682385364721339	8.806235409216652e-07
C	5.43400180790635	-0.23332823352786602	-3.6393764590783345e-06
C	4.914877857906349	-1.536526563527866	8.290623540921665e-06
C	3.5460461679063497	-1.755247213527866	-3.889376459078335e-06
C	-4.57362022209365	0.9354629764721341	-5.293764590783348e-07
C	-5.43686332209365	-0.15350482352786604	6.890623540921665e-06
C	-4.936957752093651	-1.464200703527866	-7.739376459078334e-06
C	-3.5714859620936505	-1.703040023527866	6.6806235409216645e-06
H	-4.962410252093651	1.9483576064721342	4.540623540921665e-06
H	-6.50855409209365	0.014727856472133954	2.6506235409216654e-06
H	-5.62784021209365	-2.3006956335278663	2.6006235409216654e-06
H	-3.1918563520936503	-2.7197928235278663	-1.249376459078335e-06
H	3.1514526879063496	-2.7662874235278663	2.760623540921665e-06
H	5.593376507906349	-2.3830967735278663	3.4606235409216652e-06
H	6.50805062790635	-0.08089867352786603	2.890623540921665e-06
H	4.99059105790635	1.875284216472134	2.506235409216651e-07
C	-2.678392959762512	-0.6202154562027413	4.499995730623485
C	-3.200320799762512	0.6989701237972586	4.500000570623485
S	-1.931713699762512	1.9348831637972588	4.499999120623485
C	-0.703716659762512	0.6835252837972586	4.500008220623485
C	-1.2454469397625119	-0.5892011362027414	4.499998310623485
C	0.713665760237488	0.6731551137972587	4.499993870623485
C	1.236678630237488	-0.6073682962027414	4.499990110623485
S	-0.013447089762512023	-1.8373555362027414	4.500000420623485
S	1.959901180237488	1.9063729137972587	4.500000090623485
C	3.210253240237488	0.6519827437972587	4.4999982206234845
C	2.6690034902374884	-0.6593937362027413	4.500007500623485
C	4.586892350237488	0.8682392437972586	4.500000880623485
C	5.434001790237488	-0.2333275262027414	4.499996360623485
C	4.914877840237487	-1.5365258562027413	4.500008290623485
C	3.5460461502374883	-1.7552465062027414	4.499996110623485
C	-4.573620239762512	0.9354636837972587	4.499999470623485
C	-5.436863339762512	-0.1535041162027414	4.500006890623485
C	-4.936957769762513	-1.4641999962027412	4.499992260623485
C	-3.571485979762512	-1.7030393162027413	4.500006680623485
H	-4.962410269762513	1.9483583137972589	4.500004540623485
H	-6.508554109762512	0.0147285637972586	4.500002650623485
H	-5.627840229762512	-2.3006949262027416	4.500002600623485
H	-3.1918563697625117	-2.7197921162027416	4.499998750623485
H	3.151452670237488	-2.7662867162027416	4.500002760623485
H	5.593376490237487	-2.3830960662027416	4.500003460623485
H	6.508050610237488	-0.0808979662027414	4.500002890623485
H	4.990591040237488	1.8752849237972586	4.500000250623485
