54
51d cofacial 4.0A
C	-2.6783929420936503	-0.620216163527866	-4.269376459078335e-06
C	-3.2003207820936503	0.698969416472134	5.706235409216652e-07
S	-1.9317136820936502	1.934882456472134	-8.793764590783348e-07
C	-0.7037166420936503	0.6835245764721339	8.220623540921666e-06
C	-1.2454469220936502	-0.5892018435278661	-1.6893764590783346e-06
C	0.7136657779063497	0.673154406472134	-6.129376459078335e-06
C	1.2366786479063496	-0.607369003527866	-9.889376459078334e-06
S	-0.01344707209365037	-1.837356243527866	4.206235409216651e-07
S	1.9599011979063496	1.906372206472134	9.06235409216651e-08
C	3.2102532579063494	0.651982036472134	-1.7793764590783346e-06
C	2.66900350790635	-0.659394443527866	7.500623540921665e-06
C	4.58689236790635	0.8682385364721339	8.806235409216652e-07
C	5.43400180790635	-0.23332823352786602	-3.6393764590783345e-06
C	4.914877857906349	-1.536526563527866	8.290623540921665e-06
C	3.5460461679063497	-1.755247213527866	-3.889376459078335e-06
C	-4.57362022209365	0.9354629764721341	-5.293764590783348e-07
C	-5.43686332209365	-0.15350482352786604	6.890623540921665e-06
C	-4.936957752093651	-1.464200703527866	-7.739376459078334e-06
C	-3.5714859620936505	-1.703040023527866	6.6806235409216645e-06
H	-4.962410252093651	1.9483576064721342	4.540623540921665e-06
H	-6.50855409209365	0.014727856472133954	2.6506235409216654e-06
H	-5.62784021209365	-2.3006956335278663	2.6006235409216654e-06
H	-3.1918563520936503	-2.7197928235278663	-1.249376459078335e-06
H	3.1514526879063496	-2.7662874235278663	2.760623540921665e-06
H	5.593376507906349	-2.3830967735278663	3.4606235409216652e-06
H	6.50805062790635	-0.08089867352786603	2.890623540921665e-06
H	4.99059105790635	1.875284216472134	2.506235409216651e-07
C	-2.6783929577993053	-0.6202155347944219	3.9999957306234912
C	-3.2003207977993053	0.698970045205578	4.000000570623492
S	-1.931713697799305	1.9348830852055783	3.999999120623491
C	-0.703716657799305	0.683525205205578	4.000008220623491
C	-1.245446937799305	-0.589201214794422	3.999998310623491
C	0.7136657622006949	0.6731550352055781	3.999993870623491
C	1.2366786322006948	-0.607368374794422	3.999990110623491
S	-0.013447087799305172	-1.8373556147944219	4.000000420623492
S	1.9599011822006949	1.9063728352055782	4.000000090623491
C	3.2102532422006944	0.6519826652055781	3.999998220623491
C	2.669003492200695	-0.6593938147944219	4.000007500623491
C	4.586892352200695	0.868239165205578	4.0000008806234915
C	5.434001792200696	-0.23332760479442188	3.9999963606234914
C	4.914877842200695	-1.5365259347944218	4.000008290623491
C	3.5460461522006947	-1.7552465847944219	3.999996110623491
C	-4.573620237799305	0.9354636052055781	3.999999470623491
C	-5.436863337799305	-0.1535041947944219	4.000006890623491
C	-4.9369577677993055	-1.4642000747944217	3.999992260623491
C	-3.5714859777993055	-1.7030393947944218	4.000006680623491
H	-4.962410267799306	1.9483582352055784	4.000004540623491
H	-6.508554107799305	0.014728485205578084	4.000002650623491
H	-5.627840227799305	-2.3006950047944223	4.000002600623491
H	-3.1918563677993053	-2.7197921947944224	3.999998750623491
H	3.1514526722006946	-2.7662867947944223	4.000002760623492
H	5.5933764922006945	-2.3830961447944223	4.000003460623491
H	6.508050612200695	-0.0808980447944219	4.000002890623491
H	4.990591042200696	1.8752848452055781	4.000000250623491
