54
48a TS45.0
C	-0.7301526033254833	-0.04460687031114707	3.833977096687133e-05
C	0.7223489266745167	-0.11508571031114712	-3.874022903312866e-05
C	1.1949864666745167	-1.455426110311147	2.242977096687133e-05
S	-0.1278585633254834	-2.632250360311147	-1.0229033128668426e-08
C	-1.3305103833254832	-1.332835150311147	-2.422022903312867e-05
C	1.6407932766745166	0.9350845896888531	1.9289770966871332e-05
C	2.9970772266745165	0.630358929688853	-1.552022903312867e-05
C	3.4701234966745167	-0.7099077603111471	1.669977096687133e-05
C	2.544719846674517	-1.763504120311147	-1.612022903312867e-05
C	-1.5425067733254831	1.089563949688853	-2.025022903312867e-05
C	-2.9219090833254833	0.9176888896888529	1.620977096687133e-05
C	-3.5227849233254838	-0.370359580311147	-1.938022903312867e-05
C	-2.7037791533254834	-1.508692800311147	1.759977096687133e-05
S	4.3369402666745165	1.771022179688853	5.997709668713316e-07
C	5.489277686674517	0.4530135996888529	-1.1102290331286685e-06
C	4.907637756674516	-0.769945070311147	1.3797709668713314e-06
S	-4.144586593325483	2.183066219688853	-2.2202290331286687e-06
C	-5.419470033325483	0.983260499688853	3.3997709668713313e-06
C	-4.959397123325484	-0.2904683603111471	3.7797709668713315e-06
H	-6.447952983325482	1.315043459688853	2.4497709668713315e-06
H	-5.607784403325484	-1.158541620311147	2.5397709668713315e-06
H	-3.1435550233254834	-2.500650980311147	-2.7102290331286686e-06
H	2.886411566674517	-2.793363710311147	7.197709668713316e-07
H	5.468607396674517	-1.696902560311147	1.2397709668713315e-06
H	6.545178046674517	0.6829744396888531	4.979770966871332e-06
H	1.3034034766745166	1.9661924396888528	-3.3402290331286685e-06
H	-1.1068571933254834	2.0831412296888527	8.697709668713316e-07
C	-0.5174593687230111	-0.05493773521897198	6.632944591724319
C	0.5096698705283522	-0.10475342769385074	7.661172139565542
C	0.825132887993412	-1.4374588208874624	8.041011652249097
S	-0.12785996986694648	-2.6322492387605965	7.147079462699462
C	-0.9606313780423972	-1.3508015684217178	6.253080056310779
C	1.1746065610798921	0.9577314171573389	8.273857081796379
C	2.130278587349537	0.6724661297666163	9.242195130267744
C	2.44605239526469	-0.6601607958463079	9.622300318720633
C	1.7761235031871299	-1.7261672556971153	9.004835572008885
C	-1.0763007590441254	1.0669182912064286	6.020247189799336
C	-2.055101939318519	0.8755833829329361	5.051933721555658
C	-2.49865712555465	-0.4201071924418402	4.671716195552836
C	-1.9351515762694056	-1.5460290756958144	5.289238973392602
S	3.09480792162362	1.8313618220076138	10.14938284730789
C	3.891721375820278	0.5306185364126532	11.00846607842626
C	3.462678288779183	-0.6997527722178525	10.639628188472042
S	-2.9025346743833285	2.1227325906496124	4.144962556462943
C	-3.8219265156504507	0.9056582908645114	3.2857126845533844
C	-3.51436827394563	-0.36066192227301314	3.6543498192423423
H	-4.54517290401809	1.2226138908478967	2.547938382791453
H	-3.98561498769551	-1.2373400719861432	3.2261918972207297
H	-2.2604888713190885	-2.54354629469066	5.012654647419111
H	2.0033418488017	-2.7504661162622748	9.281508076201487
H	3.846573321757852	-1.6181085765805334	11.067628592112658
H	4.64234350021695	0.775408760808319	11.74633580312383
H	0.9504549056452796	1.9833385410119737	8.000175992109266
H	-0.753861627187972	2.065994951953647	6.293862248833863
