54
48a TL90.0
C	-0.7301526033254833	-0.04460687031114707	3.833977096687133e-05
C	0.7223489266745167	-0.11508571031114712	-3.874022903312866e-05
C	1.1949864666745167	-1.455426110311147	2.242977096687133e-05
S	-0.1278585633254834	-2.632250360311147	-1.0229033128668426e-08
C	-1.3305103833254832	-1.332835150311147	-2.422022903312867e-05
C	1.6407932766745166	0.9350845896888531	1.9289770966871332e-05
C	2.9970772266745165	0.630358929688853	-1.552022903312867e-05
C	3.4701234966745167	-0.7099077603111471	1.669977096687133e-05
C	2.544719846674517	-1.763504120311147	-1.612022903312867e-05
C	-1.5425067733254831	1.089563949688853	-2.025022903312867e-05
C	-2.9219090833254833	0.9176888896888529	1.620977096687133e-05
C	-3.5227849233254838	-0.370359580311147	-1.938022903312867e-05
C	-2.7037791533254834	-1.508692800311147	1.759977096687133e-05
S	4.3369402666745165	1.771022179688853	5.997709668713316e-07
C	5.489277686674517	0.4530135996888529	-1.1102290331286685e-06
C	4.907637756674516	-0.769945070311147	1.3797709668713314e-06
S	-4.144586593325483	2.183066219688853	-2.2202290331286687e-06
C	-5.419470033325483	0.983260499688853	3.3997709668713313e-06
C	-4.959397123325484	-0.2904683603111471	3.7797709668713315e-06
H	-6.447952983325482	1.315043459688853	2.4497709668713315e-06
H	-5.607784403325484	-1.158541620311147	2.5397709668713315e-06
H	-3.1435550233254834	-2.500650980311147	-2.7102290331286686e-06
H	2.886411566674517	-2.793363710311147	7.197709668713316e-07
H	5.468607396674517	-1.696902560311147	1.2397709668713315e-06
H	6.545178046674517	0.6829744396888531	4.979770966871332e-06
H	1.3034034766745166	1.9661924396888528	-3.3402290331286685e-06
H	-1.1068571933254834	2.0831412296888527	8.697709668713316e-07
C	-0.7262739881296946	0.03524058017249792	-4.977097307886778
C	0.7262274882470823	-0.03523936377365422	-4.9770191667097485
C	1.2627048592967058	-0.0613606795674852	-6.292849073287367
S	6.157373453199474e-06	-1.0105224972640503e-06	-7.532470494715433
C	-1.2627854492717796	0.06136494357511442	-6.292937168588693
C	1.5916136726591004	-0.0773347016659714	-3.8835236611071724
C	2.9594740683216334	-0.14374541682656797	-4.12208484192159
C	3.4963570396814103	-0.16985745103775543	-5.437821294124632
C	2.624192748336937	-0.12745809766786112	-6.535076483245709
C	-1.5916770196715855	0.07733729709598611	-3.8836768904301544
C	-2.9595044589756356	0.14374475941379822	-4.122276797488196
C	-3.4965427830458813	0.1698677140550397	-5.4379621957321405
C	-2.6243010437407883	0.12746043364632537	-6.535217381729794
S	4.2409034553601055	-0.20600862537798173	-2.917756134710163
C	5.454401434592462	-0.2649541279866677	-4.178302138872642
C	4.93339751471013	-0.23964818991468953	-5.4280410882818035
S	-4.240625353487344	0.20599529527041116	-2.9177128907117726
C	-5.454363007597681	0.26494852578208006	-4.177961665743715
C	-4.933645860081817	0.23965364466005404	-5.427868107276391
H	-6.496503592031956	0.3155727871602031	-3.896470462643382
H	-5.538438238240189	0.26903344853347977	-6.326378127276314
H	-3.0149684805809924	0.14645793742957994	-7.547344792562232
H	3.014988221514052	-0.14645834688816364	-7.5471446111842155
H	5.537968699287514	-0.2690158674001348	-6.326689154861072
H	6.496671467928611	-0.3155898235713139	-3.8973808649170256
H	1.2050497802206959	-0.058534210058860656	-2.8700000182818166
H	-1.2052046630915054	0.058542763740623754	-2.8701324900964433
