54
48a PD short
C	-0.7301526033254833	-0.04460687031114707	3.833977096687133e-05
C	0.7223489266745167	-0.11508571031114712	-3.874022903312866e-05
C	1.1949864666745167	-1.455426110311147	2.242977096687133e-05
S	-0.1278585633254834	-2.632250360311147	-1.0229033128668426e-08
C	-1.3305103833254832	-1.332835150311147	-2.422022903312867e-05
C	1.6407932766745166	0.9350845896888531	1.9289770966871332e-05
C	2.9970772266745165	0.630358929688853	-1.552022903312867e-05
C	3.4701234966745167	-0.7099077603111471	1.669977096687133e-05
C	2.544719846674517	-1.763504120311147	-1.612022903312867e-05
C	-1.5425067733254831	1.089563949688853	-2.025022903312867e-05
C	-2.9219090833254833	0.9176888896888529	1.620977096687133e-05
C	-3.5227849233254838	-0.370359580311147	-1.938022903312867e-05
C	-2.7037791533254834	-1.508692800311147	1.759977096687133e-05
S	4.3369402666745165	1.771022179688853	5.997709668713316e-07
C	5.489277686674517	0.4530135996888529	-1.1102290331286685e-06
C	4.907637756674516	-0.769945070311147	1.3797709668713314e-06
S	-4.144586593325483	2.183066219688853	-2.2202290331286687e-06
C	-5.419470033325483	0.983260499688853	3.3997709668713313e-06
C	-4.959397123325484	-0.2904683603111471	3.7797709668713315e-06
H	-6.447952983325482	1.315043459688853	2.4497709668713315e-06
H	-5.607784403325484	-1.158541620311147	2.5397709668713315e-06
H	-3.1435550233254834	-2.500650980311147	-2.7102290331286686e-06
H	2.886411566674517	-2.793363710311147	7.197709668713316e-07
H	5.468607396674517	-1.696902560311147	1.2397709668713315e-06
H	6.545178046674517	0.6829744396888531	4.979770966871332e-06
H	1.3034034766745166	1.9661924396888528	-3.3402290331286685e-06
H	-1.1068571933254834	2.0831412296888527	8.697709668713316e-07
C	-0.8211312830745281	-1.9175120395300091	3.5000386157707983
C	0.6313702469254718	-1.9879908795300092	3.4999615357707983
C	1.1040077869254719	-3.3283312795300093	3.500022705770798
S	-0.21883724307452831	-4.505155529530009	3.5000002657707983
C	-1.421489063074528	-3.205740319530009	3.4999760557707984
C	1.5498145969254717	-0.9378205795300091	3.500019565770798
C	2.9060985469254716	-1.242546239530009	3.4999847557707984
C	3.379144816925472	-2.582812929530009	3.5000169757707984
C	2.453741166925472	-3.6364092895300093	3.4999841557707985
C	-1.633485453074528	-0.7833412195300092	3.4999800257707983
C	-3.012887763074528	-0.9552162795300093	3.5000164857707983
C	-3.6137636030745286	-2.243264749530009	3.4999808957707983
C	-2.794757833074528	-3.3815979695300094	3.5000178757707983
S	4.245961586925471	-0.10188298953000913	3.500000875770798
C	5.3982990069254715	-1.4198915695300092	3.4999991657707983
C	4.816659076925471	-2.6428502395300093	3.5000016557707982
S	-4.235565273074529	0.31016105046999093	3.4999980557707984
C	-5.5104487130745285	-0.8896446695300092	3.5000036757707984
C	-5.050375803074529	-2.163373529530009	3.5000040557707983
H	-6.538931663074528	-0.5578617095300092	3.5000027257707984
H	-5.698763083074529	-3.0314467895300092	3.5000028157707983
H	-3.2345337030745283	-4.3735561495300095	3.4999975657707982
H	2.795432886925472	-4.666268879530009	3.5000009957707983
H	5.3776287169254715	-3.569807729530009	3.500001515770798
H	6.454199366925471	-1.189930729530009	3.500005255770798
H	1.2124247969254718	0.09328727046999069	3.4999969357707985
H	-1.1978358730745282	0.2102360604699906	3.5000011457707982
