54
48a cofacial 4.0A
C	-0.7301526033254833	-0.04460687031114707	3.833977096687133e-05
C	0.7223489266745167	-0.11508571031114712	-3.874022903312866e-05
C	1.1949864666745167	-1.455426110311147	2.242977096687133e-05
S	-0.1278585633254834	-2.632250360311147	-1.0229033128668426e-08
C	-1.3305103833254832	-1.332835150311147	-2.422022903312867e-05
C	1.6407932766745166	0.9350845896888531	1.9289770966871332e-05
C	2.9970772266745165	0.630358929688853	-1.552022903312867e-05
C	3.4701234966745167	-0.7099077603111471	1.669977096687133e-05
C	2.544719846674517	-1.763504120311147	-1.612022903312867e-05
C	-1.5425067733254831	1.089563949688853	-2.025022903312867e-05
C	-2.9219090833254833	0.9176888896888529	1.620977096687133e-05
C	-3.5227849233254838	-0.370359580311147	-1.938022903312867e-05
C	-2.7037791533254834	-1.508692800311147	1.759977096687133e-05
S	4.3369402666745165	1.771022179688853	5.997709668713316e-07
C	5.489277686674517	0.4530135996888529	-1.1102290331286685e-06
C	4.907637756674516	-0.769945070311147	1.3797709668713314e-06
S	-4.144586593325483	2.183066219688853	-2.2202290331286687e-06
C	-5.419470033325483	0.983260499688853	3.3997709668713313e-06
C	-4.959397123325484	-0.2904683603111471	3.7797709668713315e-06
H	-6.447952983325482	1.315043459688853	2.4497709668713315e-06
H	-5.607784403325484	-1.158541620311147	2.5397709668713315e-06
H	-3.1435550233254834	-2.500650980311147	-2.7102290331286686e-06
H	2.886411566674517	-2.793363710311147	7.197709668713316e-07
H	5.468607396674517	-1.696902560311147	1.2397709668713315e-06
H	6.545178046674517	0.6829744396888531	4.979770966871332e-06
H	1.3034034766745166	1.9661924396888528	-3.3402290331286685e-06
H	-1.1068571933254834	2.0831412296888527	8.697709668713316e-07
C	-0.7301525142194198	-0.04460628518145768	4.000038339770923
C	0.7223490157805801	-0.11508512518145772	3.9999612597709233
C	1.19498655578058	-1.4554255251814576	4.000022429770923
S	-0.12785847421941998	-2.6322497751814575	3.9999999897709233
C	-1.3305102942194198	-1.3328345651814577	3.9999757797709234
C	1.64079336578058	0.9350851748185425	4.000019289770924
C	2.99707731578058	0.6303595148185424	3.9999844797709234
C	3.47012358578058	-0.7099071751814577	4.0000166997709234
C	2.5447199357805803	-1.7635035351814576	3.9999838797709235
C	-1.5425066842194197	1.0895645348185423	3.9999797497709233
C	-2.92190899421942	0.9176894748185422	4.000016209770924
C	-3.5227848342194203	-0.37035899518145765	3.9999806197709233
C	-2.70377906421942	-1.5086922151814577	4.000017599770923
S	4.33694035578058	1.7710227648185424	4.000000599770924
C	5.489277775780581	0.4530141848185423	3.9999988897709233
C	4.90763784578058	-0.7699444851814576	4.000001379770923
S	-4.144586504219419	2.1830668048185426	3.9999977797709234
C	-5.419469944219419	0.9832610848185424	4.0000033997709235
C	-4.95939703421942	-0.2904677751814577	4.000003779770923
H	-6.447952894219418	1.3150440448185423	4.000002449770923
H	-5.60778431421942	-1.1585410351814576	4.000002539770923
H	-3.14355493421942	-2.5006503951814576	3.9999972897709233
H	2.8864116557805803	-2.7933631251814575	4.000000719770924
H	5.468607485780581	-1.6969019751814576	4.000001239770923
H	6.5451781357805805	0.6829750248185424	4.000004979770924
H	1.30340356578058	1.9661930248185422	3.9999966597709236
H	-1.10685710421942	2.0831418148185423	4.000000869770924
