60
4cene_F3 TS90.0
C	-4.892133065246751	-0.626626246960087	-3.320111740087939e-06
C	-4.866484495246752	0.8021044830399131	7.659888259912061e-06
C	-3.6817512552467515	1.477332333039913	-4.410111740087938e-06
C	-2.4422937352467518	0.7614714630399131	5.309888259912062e-06
C	-2.457505355246752	-0.687440366960087	1.0098882599120613e-06
C	-3.731378225246752	-1.342295566960087	9.679888259912062e-06
C	-1.2099897652467515	1.396448173039913	5.698882599120613e-07
C	0.023220114753248478	0.7238534430399131	1.1029888259912061e-05
C	-0.023267905246751527	-0.723768726960087	-1.8700111740087937e-05
C	-1.2597602652467517	-1.393743476960087	1.0498882599120613e-06
C	1.2597208547532484	1.3936271830399132	5.999888259912061e-06
C	2.4574605747532483	0.687514613039913	-1.5130111740087939e-05
C	2.4423969647532484	-0.761437896960087	2.2339888259912063e-05
C	1.2100241547532486	-1.3962876869600869	-1.765011174008794e-05
C	3.7313084047532485	1.342322483039913	1.2549888259912062e-05
C	4.892056804753248	0.6266553030399131	-4.8301117400879385e-06
C	4.866548404753249	-0.802078486960087	2.599888259912061e-06
C	3.681826274753248	-1.477358736960087	-2.1011174008793867e-07
H	-1.2733752852467517	-2.477118446960087	9.398882599120613e-07
F	1.1818304647532485	-2.7513319469600868	1.9998882599120613e-06
H	3.658410994753248	-2.560346246960087	-1.0401117400879386e-06
H	3.7518731347532484	2.4277776230399133	7.798882599120614e-07
H	1.2733744547532484	2.476875583039913	5.598882599120614e-07
F	-1.1818300552467513	2.751164943039913	-1.156011174008794e-05
H	-3.6583996552467517	2.560250483039913	-3.900111740087938e-06
H	-5.8028462452467515	1.350310593039913	1.5898882599120615e-06
H	-5.847946995246752	-1.140395266960087	-2.980111740087939e-06
H	-3.7518724452467516	-2.427836886960087	1.2998882599120613e-06
H	5.847871684753248	1.1404236230399132	3.039888259912061e-06
H	5.802920684753248	-1.350276266960087	-5.370111740087938e-06
C	-0.08483300032194055	-1.0246493175164344	3.9408038773491363
C	0.03281769120143301	0.3964639490670176	3.848474323930306
C	0.0964211434243858	1.164517540345033	4.973451559838869
C	0.04598383286154285	0.5554555843455692	6.267751115827929
C	-0.07326198267044286	-0.8848425673550514	6.372147256567668
C	-0.13579367607625234	-1.6399927054418262	5.156653332999321
C	0.10659394475496829	1.2874445690217744	7.443458153057705
C	0.059671209328137804	0.7208404747415497	8.727961300701862
C	-0.05965615757736431	-0.7207508445193125	8.80108128225293
C	-0.12318769449663067	-1.4878427696125474	7.624087975288346
C	0.12317160409733204	1.4877346621176786	9.904979545281062
C	0.07328262195393437	0.884921514173773	11.156899190046976
C	-0.04600715860107527	-0.5554014226947293	11.26144619273554
C	-0.10656272487076801	-1.28727370323017	10.085660077548281
C	0.1357740268009793	1.640025584747499	12.37237206440455
C	0.08484375957934388	1.0246812859237358	13.588214925435366
C	-0.03282457644601322	-0.39642197417583236	13.680684423351874
C	-0.09641743271042012	-1.1645279228757834	12.555722583304142
H	-0.2123680853789904	-2.5649611833748045	7.699913267958156
F	-0.21820190420414146	-2.6354089599527777	10.16937300558288
H	-0.1856319696936981	-2.242067477721437	12.621749065022144
H	0.2251846303182776	2.7197805200990284	12.303301138729465
H	0.21234738065573983	2.5647300822297616	9.829203144878857
F	0.21819846830796177	2.635252391688023	7.359738383493831
H	0.18562986215755503	2.24198294443455	4.907367338466122
H	0.07152845267949728	0.8639373645619152	2.870070854653667
H	-0.1335891238923862	-1.6135196452950877	3.0306426541748213
H	-0.22519080496839133	-2.7198290984346385	5.22580163930605
H	0.1335916500519317	1.613551674022247	14.498377153130052
H	-0.07152058911683333	-0.8638874089574438	14.659097699376204
