60
4cene_F3 PD long+short
C	-4.892133065246751	-0.626626246960087	-3.320111740087939e-06
C	-4.866484495246752	0.8021044830399131	7.659888259912061e-06
C	-3.6817512552467515	1.477332333039913	-4.410111740087938e-06
C	-2.4422937352467518	0.7614714630399131	5.309888259912062e-06
C	-2.457505355246752	-0.687440366960087	1.0098882599120613e-06
C	-3.731378225246752	-1.342295566960087	9.679888259912062e-06
C	-1.2099897652467515	1.396448173039913	5.698882599120613e-07
C	0.023220114753248478	0.7238534430399131	1.1029888259912061e-05
C	-0.023267905246751527	-0.723768726960087	-1.8700111740087937e-05
C	-1.2597602652467517	-1.393743476960087	1.0498882599120613e-06
C	1.2597208547532484	1.3936271830399132	5.999888259912061e-06
C	2.4574605747532483	0.687514613039913	-1.5130111740087939e-05
C	2.4423969647532484	-0.761437896960087	2.2339888259912063e-05
C	1.2100241547532486	-1.3962876869600869	-1.765011174008794e-05
C	3.7313084047532485	1.342322483039913	1.2549888259912062e-05
C	4.892056804753248	0.6266553030399131	-4.8301117400879385e-06
C	4.866548404753249	-0.802078486960087	2.599888259912061e-06
C	3.681826274753248	-1.477358736960087	-2.1011174008793867e-07
H	-1.2733752852467517	-2.477118446960087	9.398882599120613e-07
F	1.1818304647532485	-2.7513319469600868	1.9998882599120613e-06
H	3.658410994753248	-2.560346246960087	-1.0401117400879386e-06
H	3.7518731347532484	2.4277776230399133	7.798882599120614e-07
H	1.2733744547532484	2.476875583039913	5.598882599120614e-07
F	-1.1818300552467513	2.751164943039913	-1.156011174008794e-05
H	-3.6583996552467517	2.560250483039913	-3.900111740087938e-06
H	-5.8028462452467515	1.350310593039913	1.5898882599120615e-06
H	-5.847946995246752	-1.140395266960087	-2.980111740087939e-06
H	-3.7518724452467516	-2.427836886960087	1.2998882599120613e-06
H	5.847871684753248	1.1404236230399132	3.039888259912061e-06
H	5.802920684753248	-1.350276266960087	-5.370111740087938e-06
C	-1.5647627293556814	-2.8232377349651845	3.4999977942130576
C	-1.5391141593556819	-1.3945070049651842	3.5000087742130574
C	-0.3543809193556815	-0.7192791549651842	3.4999967042130575
C	0.8850766006443183	-1.4351400249651842	3.5000064242130575
C	0.8698649806443182	-2.8840518549651843	3.5000021242130575
C	-0.40400788935568177	-3.5389070549651844	3.5000107942130576
C	2.1173805706443183	-0.8001633149651843	3.5000016842130575
C	3.3505904506443183	-1.4727580449651843	3.5000121442130574
C	3.3041024306443183	-2.9203802149651845	3.4999824142130573
C	2.067610070644318	-3.5903549649651847	3.5000021642130577
C	4.587091190644318	-0.8029843049651841	3.5000071142130573
C	5.784830910644318	-1.5090968749651843	3.4999859842130574
C	5.769767300644318	-2.9580493849651845	3.5000234542130575
C	4.537394490644318	-3.5928991749651846	3.4999834642130576
C	7.058678740644319	-0.8542890049651843	3.5000136642130575
C	8.219427140644319	-1.5699561849651842	3.4999962842130574
C	8.19391874064432	-2.9986899749651847	3.5000037142130576
C	7.0091966106443175	-3.6739702249651844	3.5000009042130573
H	2.053995050644318	-4.673729934965184	3.5000020542130574
F	4.509200800644318	-4.947943434965184	3.5000031142130577
H	6.9857813306443175	-4.756957734965185	3.5000000742130575
H	7.079243470644318	0.23116613503481595	3.5000018942130575
H	4.600744790644318	0.28026409503481564	3.5000016742130575
F	2.1455402806443185	0.5545534550348157	3.4999895542130575
H	-0.3310293193556817	0.36363899503481556	3.4999972142130575
H	-2.4754759093556817	-0.8463008949651842	3.5000027042130575
H	-2.520576659355682	-3.3370067549651843	3.4999981342130573
H	-0.42450210935568156	-4.624448374965184	3.5000024142130575
H	9.175242020644319	-1.0561878649651841	3.5000041542130576
H	9.13029102064432	-3.5468877549651845	3.4999957442130576
