68
84m TL45.0
C	-0.6729092787987168	0.008653696624213003	-4.353489095048099e-06
C	0.6729445012012832	-0.0052141833757870515	3.1265109049519005e-06
S	1.6385579412012832	1.492980806624213	8.526510904951901e-06
C	3.2127455512012832	0.686260926624213	-1.4513489095048099e-05
C	3.197196361201283	-0.751276893375787	7.596510904951901e-06
S	1.6061246212012832	-1.523849603375787	4.246510904951901e-06
S	-1.6074439887987166	1.526432666624213	-1.613489095048099e-06
C	-3.197926978798717	0.752321716624213	2.9786510904951902e-05
C	-3.211993338798717	-0.685231353375787	-3.20434890950481e-05
S	-1.637185818798717	-1.4904255133757869	-2.434890950480991e-07
N	-4.285537658798717	1.458966986624213	-2.9573489095048102e-05
C	-5.468881668798717	0.769052886624213	6.72165109049519e-05
C	-5.482822318798716	-0.657675033375787	-6.82034890950481e-05
N	-4.313187988798717	-1.3704980833757872	3.12765109049519e-05
N	4.314701271201283	1.370316586624213	9.476510904951902e-06
C	5.483591531201283	0.656185336624213	-2.59734890950481e-05
C	5.468081971201283	-0.770526303375787	2.13165109049519e-05
N	4.284020931201283	-1.4591175833757868	-1.56834890950481e-05
C	6.719714781201283	1.337099746624213	1.0076510904951901e-05
C	7.897379081201283	0.622683946624213	-4.423489095048099e-06
C	7.882081991201284	-0.789662633375787	1.7765109049519007e-06
C	6.689089511201283	-1.4781504133757868	-9.173489095048099e-06
C	-6.690722018798716	1.475261486624213	-2.91734890950481e-05
C	-7.882898238798717	0.785333866624213	9.326510904951902e-06
C	-7.896652178798716	-0.627028463375787	-1.4513489095048099e-05
C	-6.7181417487987165	-1.340021263375787	2.94165109049519e-05
H	-6.6541484787987155	2.558808446624213	2.106510904951901e-06
H	-8.821711718798717	1.328910906624213	-4.943489095048099e-06
H	-8.845845108798716	-1.152281823375787	-2.663489095048099e-06
H	-6.702607398798717	-2.424068473375787	-1.743489095048099e-06
H	6.651177991201283	-2.561663493375787	-6.234890950480992e-07
H	8.820257601201284	-1.334322953375787	-2.534890950480991e-07
H	8.847188641201283	1.146839476624213	-2.3434890950480992e-06
H	6.705517981201282	2.421153266624213	-3.2634890950480993e-06
C	-0.6729145479727497	0.008153440039869246	-4.309428936146874
C	0.6729391719925848	-0.00572026548443618	-4.309422422424376
S	1.634000902052158	1.0507920388902596	-3.2430549223013347
C	3.2105744449471167	0.4755950946857238	-3.8020074569739752
C	3.1993641481629664	-0.5409110616237732	-4.818543892700587
S	1.6106735873463698	-1.082422119973595	-5.376402252619748
S	-1.6120009545071015	1.0842510252812558	-3.2430618164002984
C	-3.2000983943516643	0.5416258715942067	-3.801978956520777
C	-3.2098252495869977	-0.47483619249680425	-4.818574724721735
S	-1.6326368202835497	-1.0489948889128593	-5.376405174911606
N	-4.28980750979122	1.0446459954121152	-3.3102988459313787
C	-5.471033220070879	0.5602846050533296	-3.8066700635236286
C	-5.480666503906736	-0.44847093155432577	-4.815662821165855
N	-4.308917937068394	-0.9561355203585549	-5.311085002551231
N	4.310431197635775	0.9559739978746797	-3.3102862063345437
C	5.481440649029287	0.44748198181612264	-3.806734207395987
C	5.470237123508613	-0.561386496088892	-4.815597690581276
N	4.288291388068663	-1.0447157074551452	-5.311133411415112
C	6.7154701513496615	0.9252261306441282	-3.316247877413847
C	7.895254075979779	0.41649160452203127	-3.8128183277127548
C	7.884219958694013	-0.5821903830333717	-4.811552225718985
C	6.693342558858537	-1.0654378688560275	-5.307061425101764
C	-6.694966242895637	1.0634272435181458	-3.316302978687353
C	-7.885023422926114	0.5791241641616761	-3.81278933040143
C	-7.8945141717818315	-0.41955237782743404	-4.811544361829922
C	-6.7138888639236285	-0.927324514496276	-5.30706117089693
H	-6.661664274559164	1.8295118483074513	-2.5498716402482584
H	-8.825448145734281	0.9663515992004936	-3.435293630912089
H	-8.842092421299414	-0.7881225524847937	-5.189842918644425
H	-6.695083054043534	-1.6939202163747633	-6.073466443507861
H	6.658702259656793	-1.8315226402319753	-6.073450393374387
H	8.824010219514882	-0.9701703960187409	-5.189830052951308
H	8.843452148128424	0.7842737514746002	-3.4352816695484716
H	6.698002155081275	1.6918537222919203	-2.549859863178721
