68
84m TS45.0
C	-0.6729092787987168	0.008653696624213003	-4.353489095048099e-06
C	0.6729445012012832	-0.0052141833757870515	3.1265109049519005e-06
S	1.6385579412012832	1.492980806624213	8.526510904951901e-06
C	3.2127455512012832	0.686260926624213	-1.4513489095048099e-05
C	3.197196361201283	-0.751276893375787	7.596510904951901e-06
S	1.6061246212012832	-1.523849603375787	4.246510904951901e-06
S	-1.6074439887987166	1.526432666624213	-1.613489095048099e-06
C	-3.197926978798717	0.752321716624213	2.9786510904951902e-05
C	-3.211993338798717	-0.685231353375787	-3.20434890950481e-05
S	-1.637185818798717	-1.4904255133757869	-2.434890950480991e-07
N	-4.285537658798717	1.458966986624213	-2.9573489095048102e-05
C	-5.468881668798717	0.769052886624213	6.72165109049519e-05
C	-5.482822318798716	-0.657675033375787	-6.82034890950481e-05
N	-4.313187988798717	-1.3704980833757872	3.12765109049519e-05
N	4.314701271201283	1.370316586624213	9.476510904951902e-06
C	5.483591531201283	0.656185336624213	-2.59734890950481e-05
C	5.468081971201283	-0.770526303375787	2.13165109049519e-05
N	4.284020931201283	-1.4591175833757868	-1.56834890950481e-05
C	6.719714781201283	1.337099746624213	1.0076510904951901e-05
C	7.897379081201283	0.622683946624213	-4.423489095048099e-06
C	7.882081991201284	-0.789662633375787	1.7765109049519007e-06
C	6.689089511201283	-1.4781504133757868	-9.173489095048099e-06
C	-6.690722018798716	1.475261486624213	-2.91734890950481e-05
C	-7.882898238798717	0.785333866624213	9.326510904951902e-06
C	-7.896652178798716	-0.627028463375787	-1.4513489095048099e-05
C	-6.7181417487987165	-1.340021263375787	2.94165109049519e-05
H	-6.6541484787987155	2.558808446624213	2.106510904951901e-06
H	-8.821711718798717	1.328910906624213	-4.943489095048099e-06
H	-8.845845108798716	-1.152281823375787	-2.663489095048099e-06
H	-6.702607398798717	-2.424068473375787	-1.743489095048099e-06
H	6.651177991201283	-2.561663493375787	-6.234890950480992e-07
H	8.820257601201284	-1.334322953375787	-2.534890950480991e-07
H	8.847188641201283	1.146839476624213	-2.3434890950480992e-06
H	6.705517981201282	2.421153266624213	-3.2634890950480993e-06
C	-0.47581021740588336	0.006622308609648947	8.319176152381711
C	0.47584683308273107	-0.0031832195294461615	9.270894296143382
S	1.1631865495854192	1.497879490301444	9.942736836380336
C	2.2739357809886145	0.6959355245041231	11.061658467887227
C	2.2585861051491993	-0.7416043515664985	11.06115459553535
S	1.1311496751971064	-1.5189550052262253	9.941783820614784
S	-1.132076255558329	1.5215336108383664	7.647337809084802
C	-2.259125571286939	0.7426467951159964	6.5284191017674456
C	-2.273367376492346	-0.6949044668552501	6.528904449469231
S	-1.1622139541573495	-1.4953204895804348	7.648292060601282
N	-3.026041593963896	1.445987180926439	5.754211992373313
C	-3.864979634387767	0.7525238423742815	4.922601456627255
C	-3.8790478407673716	-0.6742027631135208	4.923044774841635
N	-3.0541768005327294	-1.3834728922275628	5.755321668279684
N	3.0552179971227007	1.3832958506973612	11.83584994040705
C	3.879654333856341	0.6727143334339585	12.667514847327492
C	3.8643475522938906	-0.753999396275144	12.666977914399887
N	3.0250010639785754	-1.4461430948931577	11.834756146045414
C	4.755793485394096	1.3573385207185984	13.536603469714969
C	5.586418606307235	0.6464990955310705	14.374489117701302
C	5.571334478876858	-0.7658496791314208	14.373968687467729
C	4.725654124199508	-1.457916646763058	13.535449438617874
C	-4.726789676988984	1.4550221888856194	4.053461674708583
C	-5.571932133440432	0.7615182498835125	3.215565036246309
C	-5.585903848220513	-0.6508418358630995	3.216114593181553
C	-4.754717416040454	-1.360255325879184	4.054629460994551
H	-4.697679014150143	2.5386460567623854	4.07144838115229
H	-6.234152055646319	1.3022448848185648	2.5477879553623133
H	-6.258707769738246	-1.1789434929659677	2.5488051944396632
H	-4.74698221046383	-2.4442221626393392	4.073490370530501
H	4.695569264700178	-2.5415103835679203	13.516544604868779
H	6.233111594830771	-1.3076616042756393	15.041291117749171
H	6.25964540743199	1.1735049193083562	15.042252366056177
H	4.749035595719117	2.4413153798303093	13.518656788405153
