68
84m TS90.0
C	-0.6729092787987168	0.008653696624213003	-4.353489095048099e-06
C	0.6729445012012832	-0.0052141833757870515	3.1265109049519005e-06
S	1.6385579412012832	1.492980806624213	8.526510904951901e-06
C	3.2127455512012832	0.686260926624213	-1.4513489095048099e-05
C	3.197196361201283	-0.751276893375787	7.596510904951901e-06
S	1.6061246212012832	-1.523849603375787	4.246510904951901e-06
S	-1.6074439887987166	1.526432666624213	-1.613489095048099e-06
C	-3.197926978798717	0.752321716624213	2.9786510904951902e-05
C	-3.211993338798717	-0.685231353375787	-3.20434890950481e-05
S	-1.637185818798717	-1.4904255133757869	-2.434890950480991e-07
N	-4.285537658798717	1.458966986624213	-2.9573489095048102e-05
C	-5.468881668798717	0.769052886624213	6.72165109049519e-05
C	-5.482822318798716	-0.657675033375787	-6.82034890950481e-05
N	-4.313187988798717	-1.3704980833757872	3.12765109049519e-05
N	4.314701271201283	1.370316586624213	9.476510904951902e-06
C	5.483591531201283	0.656185336624213	-2.59734890950481e-05
C	5.468081971201283	-0.770526303375787	2.13165109049519e-05
N	4.284020931201283	-1.4591175833757868	-1.56834890950481e-05
C	6.719714781201283	1.337099746624213	1.0076510904951901e-05
C	7.897379081201283	0.622683946624213	-4.423489095048099e-06
C	7.882081991201284	-0.789662633375787	1.7765109049519007e-06
C	6.689089511201283	-1.4781504133757868	-9.173489095048099e-06
C	-6.690722018798716	1.475261486624213	-2.91734890950481e-05
C	-7.882898238798717	0.785333866624213	9.326510904951902e-06
C	-7.896652178798716	-0.627028463375787	-1.4513489095048099e-05
C	-6.7181417487987165	-1.340021263375787	2.94165109049519e-05
H	-6.6541484787987155	2.558808446624213	2.106510904951901e-06
H	-8.821711718798717	1.328910906624213	-4.943489095048099e-06
H	-8.845845108798716	-1.152281823375787	-2.663489095048099e-06
H	-6.702607398798717	-2.424068473375787	-1.743489095048099e-06
H	6.651177991201283	-2.561663493375787	-6.234890950480992e-07
H	8.820257601201284	-1.334322953375787	-2.534890950480991e-07
H	8.847188641201283	1.146839476624213	-2.3434890950480992e-06
H	6.705517981201282	2.421153266624213	-3.2634890950480993e-06
C	2.2373578520781723e-05	0.0017185772211148142	11.031938090581216
C	1.491165029552734e-05	0.001720369372148263	12.37786331704554
S	0.015550017821464935	1.509706320429272	13.32798676980812
C	0.007427475120104156	0.7192928191060084	14.910403945530607
C	-0.007409216963757154	-0.7182523434868298	14.909669232797928
S	-0.015535705313599293	-1.5071379771294078	13.326643240814839
S	0.015560161718185498	1.5097066463036244	10.081812474348771
C	0.007383137128082004	0.7192893607790976	8.499391052480345
C	-0.007369619091324769	-0.718256635618991	8.500139248163727
S	-0.01553121145745544	-1.5071376260802658	10.083160578612809
N	0.014608538999955274	1.4146518795972065	7.404556227779481
C	0.007276958481860159	0.7126184716568094	6.2283845299340115
C	-0.0072906518658147285	-0.7141029872566295	6.229146877094026
N	-0.014611119610978196	-1.4147970178015832	7.406064657881104
N	0.014569271772232929	1.4146310019332415	16.005252045331385
C	0.0073701676627654115	0.7126198527205363	17.181439276467316
C	-0.007380141832370757	-0.7140996116764273	17.180632629167803
N	-0.014564384760082563	-1.4148191072984733	16.003730307895704
C	0.014481783712615832	1.4061997499962555	18.410480152617485
C	0.007259730328949167	0.7039947074981203	19.595443890134163
C	-0.007301445787435327	-0.708359456406957	19.594701671364426
C	-0.014511619267353093	-1.4090672270878977	18.408867317767125
C	0.014520634793854596	1.406160838344218	4.999331662211786
C	0.007246263964441021	0.7040223011528026	3.814328362649147
C	-0.007284872172301154	-0.7083320195117737	3.8151293742451164
C	-0.014550599473229502	-1.409104892199612	5.000924532993917
H	0.025658516928429687	2.489969923611296	5.0247374411982175
H	0.01276206258527611	1.2378676265527933	2.8699632355067592
H	-0.012809926075238294	-1.2433102780764311	2.871399514944164
H	-0.02568822297786047	-2.492877236177288	5.027629032267534
H	-0.025689122256184124	-2.492855812495979	18.38212328069371
H	-0.012812175535636077	-1.2432946875660684	20.53844012544367
H	0.012759607997551922	1.2378817501494683	20.539801659698185
H	0.025664111910800456	2.48999172729226	18.385113067300644
