68
84m TL90.0
C	-0.6729092787987168	0.008653696624213003	-4.353489095048099e-06
C	0.6729445012012832	-0.0052141833757870515	3.1265109049519005e-06
S	1.6385579412012832	1.492980806624213	8.526510904951901e-06
C	3.2127455512012832	0.686260926624213	-1.4513489095048099e-05
C	3.197196361201283	-0.751276893375787	7.596510904951901e-06
S	1.6061246212012832	-1.523849603375787	4.246510904951901e-06
S	-1.6074439887987166	1.526432666624213	-1.613489095048099e-06
C	-3.197926978798717	0.752321716624213	2.9786510904951902e-05
C	-3.211993338798717	-0.685231353375787	-3.20434890950481e-05
S	-1.637185818798717	-1.4904255133757869	-2.434890950480991e-07
N	-4.285537658798717	1.458966986624213	-2.9573489095048102e-05
C	-5.468881668798717	0.769052886624213	6.72165109049519e-05
C	-5.482822318798716	-0.657675033375787	-6.82034890950481e-05
N	-4.313187988798717	-1.3704980833757872	3.12765109049519e-05
N	4.314701271201283	1.370316586624213	9.476510904951902e-06
C	5.483591531201283	0.656185336624213	-2.59734890950481e-05
C	5.468081971201283	-0.770526303375787	2.13165109049519e-05
N	4.284020931201283	-1.4591175833757868	-1.56834890950481e-05
C	6.719714781201283	1.337099746624213	1.0076510904951901e-05
C	7.897379081201283	0.622683946624213	-4.423489095048099e-06
C	7.882081991201284	-0.789662633375787	1.7765109049519007e-06
C	6.689089511201283	-1.4781504133757868	-9.173489095048099e-06
C	-6.690722018798716	1.475261486624213	-2.91734890950481e-05
C	-7.882898238798717	0.785333866624213	9.326510904951902e-06
C	-7.896652178798716	-0.627028463375787	-1.4513489095048099e-05
C	-6.7181417487987165	-1.340021263375787	2.94165109049519e-05
H	-6.6541484787987155	2.558808446624213	2.106510904951901e-06
H	-8.821711718798717	1.328910906624213	-4.943489095048099e-06
H	-8.845845108798716	-1.152281823375787	-2.663489095048099e-06
H	-6.702607398798717	-2.424068473375787	-1.743489095048099e-06
H	6.651177991201283	-2.561663493375787	-6.234890950480992e-07
H	8.820257601201284	-1.334322953375787	-2.534890950480991e-07
H	8.847188641201283	1.146839476624213	-2.3434890950480992e-06
H	6.705517981201282	2.421153266624213	-3.2634890950480993e-06
C	-0.6729270878869248	0.006939311782565111	-5.36129047828247
C	0.6729265966683227	-0.006937829784384488	-5.361288767307818
S	1.6229995496031104	-0.01673418290275668	-3.8532228008573304
C	3.205332938409675	-0.03301783847126601	-4.643678040592524
C	3.2045980323746095	-0.03303237608971652	-6.08129976463214
S	1.6216561266683593	-0.01671605806435197	-6.870227248625284
S	-1.623002278677365	0.016727547530870565	-3.853222360370685
C	-3.205340004470919	0.03300288735017266	-4.643681935693455
C	-3.2045912158325516	0.033057004010934934	-6.081303628545919
S	-1.6216542694957619	0.016712285583531113	-6.870226841196799
N	-4.300116082671249	0.04434443773817869	-3.948281878012882
C	-5.476226328719107	0.05636801704807013	-4.650353557709351
C	-5.475462630982218	0.05649557397112264	-6.07714937991501
N	-4.298608368519094	0.04426804679690944	-6.777881646136352
N	4.300122659816235	-0.04432415758084154	-3.948303185967328
C	5.47624780185812	-0.05640923365817814	-4.650351250275813
C	5.475440705631341	-0.05644820865948826	-6.077146960766932
N	4.298601253651241	-0.044283317432022754	-6.777903279605029
C	6.705223050073751	-0.06911045896712235	-3.956734899268434
C	7.890124016599846	-0.08130692519457791	-4.658977083085007
C	7.889381768956024	-0.08130547630944379	-6.071406306835684
C	6.703610490473091	-0.06907458975269445	-6.772151168539834
C	-6.70521294175598	0.06912970268094751	-3.956773366780377
C	-7.890153719913997	0.08130257791176985	-4.6589495805768095
C	-7.889352509573258	0.08131816232473292	-6.071378651523742
C	-6.703620768073625	0.06905470146412797	-6.772189191633148
H	-6.679808830711511	0.06883661959494504	-2.8729070537250463
H	-8.834468555223417	0.0910484613653175	-4.12507575801313
H	-8.83303238326155	0.0910313808103511	-6.606385436598472
H	-6.676917369003121	0.06881067191373612	-7.856018762846865
H	6.676867781954158	-0.06880754389918492	-7.8559973911103995
H	8.833070132443803	-0.09102860280791904	-6.606369925051301
H	8.834431623659906	-0.09104054351029452	-4.125061715424283
H	6.67985745251646	-0.06883571373350196	-2.8728852351045315
