72
78a TL90.0
C	-3.7305546091117634	-0.6267628745889575	-1.6903880048290698e-05
C	-3.695150849111764	0.8098059354110425	1.99761199517093e-05
C	-2.4586239491117636	1.4517441754110425	-1.7993880048290696e-05
C	-1.2060858991117642	0.7497896254110425	3.95761199517093e-05
C	-1.2415363991117638	-0.6895792245889574	-3.57638800482907e-05
C	-2.5271586391117644	-1.3288880845889575	1.7376119951709302e-05
C	0.03430128088823592	1.3911863754110425	-3.52238800482907e-05
C	1.241490780888236	0.6892835254110425	3.6966119951709296e-05
C	1.2061042408882359	-0.7500884945889574	-4.12638800482907e-05
C	-0.03431605911176394	-1.3915149245889575	2.86261199517093e-05
C	2.526984640888236	1.3287881454110426	-1.3293880048290697e-05
C	3.730471090888236	0.6268709054110425	1.7296119951709303e-05
C	3.6952209308882358	-0.8097001145889575	-2.2173880048290697e-05
C	2.458778930888236	-1.4518585045889576	1.9776119951709303e-05
C	-4.7929806491117635	1.7303089554110427	-9.153880048290698e-06
C	-4.391159399111764	3.028239945411043	4.361199517093022e-07
S	-2.6585472391117637	3.191145285411043	3.036119951709302e-06
C	-4.872375059111763	-1.4919854945889572	8.016119951709302e-06
C	-4.5350686291117634	-2.808158954588958	8.061199517093023e-07
S	-2.812543799111764	-3.0563221145889576	-9.338800482906978e-07
S	2.812029030888236	3.056268355411042	1.6361199517093024e-06
C	4.534595270888236	2.808415055411043	-2.3388004829069778e-07
C	4.872136020888236	1.4923096954110426	-6.7638800482906985e-06
C	4.793222900888236	-1.7299806245889575	1.0496119951709302e-05
C	4.391666560888236	-3.0279898445889577	-1.0638800482906978e-06
S	2.659076450888236	-3.1912307845889574	-3.783880048290698e-06
H	-5.005116439111764	3.9170889354110425	2.806119951709302e-06
H	-5.8345331291117635	1.4339592354110424	-6.338800482906977e-07
H	-5.898022329111764	-1.1446136045889574	6.961199517093023e-07
H	-5.192130029111764	-3.6656291845889575	-5.838800482906978e-07
H	5.005797320888236	-3.9167217645889574	-1.2638800482906978e-06
H	5.834704050888236	-1.4333670445889573	2.8461199517093022e-06
H	5.897868090888236	1.1451831554110425	5.661199517093022e-07
H	5.191434960888236	3.6660634954110423	3.8061199517093023e-06
H	0.061251950888235984	2.4765617054110427	2.4761199517093024e-06
H	-0.06126710911176403	-2.476898294588957	-3.4838800482906977e-06
C	-3.7128103673766537	0.09170884694827125	-7.381372502004451
C	-3.7128852831056287	0.09167380582245527	-5.944367503193785
C	-2.492954921807085	0.061584386756292214	-5.27209670933026
C	-1.2238566944951983	0.030185148923170348	-5.942913776476836
C	-1.2237584325210076	0.030258085216549827	-7.382719115750715
C	-2.492819479610127	0.0615456610914118	-8.053573430515048
C	-5.4132259324252376e-05	3.6943210717752636e-05	-5.271089002319776
C	1.2237215492093028	-0.030257633471524603	-5.942973981337324
C	1.2238838817871784	-0.030183388584636647	-7.3827809105565905
C	4.907349605673989e-05	-2.9475026534309026e-05	-8.05463617335611
C	2.492649391862535	-0.06154480060770106	-5.271927135776512
C	3.712725662638621	-0.0917064039583154	-5.943917923846562
C	3.7129542032329197	-0.0916725659625386	-7.3809213398014215
C	2.4931140254830364	-0.06158935528282679	-8.053410120491128
C	-4.832764291168037	0.11935947709175473	-5.051249038849194
C	-4.463222641799448	0.11022368346151246	-3.7437932351974617
S	-2.7356873109512616	0.06755786951423938	-3.5381616331062338
C	-4.832580764857408	0.11933776949075582	-8.27452143828765
C	-4.4629950651549	0.11021769311573687	-9.581966060197894
S	-2.735395160947417	0.06755462578801943	-9.78752670239193
S	2.734883454579021	-0.06754194766016482	-3.5379361111393837
C	4.462517099051071	-0.11020571819783122	-3.7431859654239967
C	4.8323352783542495	-0.11933221609648413	-5.050556723039036
C	4.832999697150976	-0.11936588984593433	-8.273813111318672
C	4.463724775756361	-0.11023471272918119	-9.581340580845145
S	2.736219767428287	-0.06756952759028781	-9.787307136255919
H	-5.098743342352269	0.12591613218928446	-2.8703729696797806
H	-5.866367873171032	0.1448768289284431	-5.3732229900263695
H	-5.866176236958746	0.14487076587492917	-7.9525773148415695
H	-5.098492574288247	0.1259133302546082	-10.45539690552468
H	5.09941614742486	-0.12593354701252002	-10.454639523128641
H	5.866525458781413	-0.1448821900959367	-7.951577141613182
H	5.8660094429981156	-0.1448671658747651	-5.372253477670182
H	5.0977885694683085	-0.12589842389247216	-2.869582438146346
H	9.085687411046474e-05	-4.348935681512944e-06	-4.185379131184555
H	-9.623497778909222e-05	6.233301906345702e-06	-9.140354091422342
