72
78a TS90.0
C	-3.7305546091117634	-0.6267628745889575	-1.6903880048290698e-05
C	-3.695150849111764	0.8098059354110425	1.99761199517093e-05
C	-2.4586239491117636	1.4517441754110425	-1.7993880048290696e-05
C	-1.2060858991117642	0.7497896254110425	3.95761199517093e-05
C	-1.2415363991117638	-0.6895792245889574	-3.57638800482907e-05
C	-2.5271586391117644	-1.3288880845889575	1.7376119951709302e-05
C	0.03430128088823592	1.3911863754110425	-3.52238800482907e-05
C	1.241490780888236	0.6892835254110425	3.6966119951709296e-05
C	1.2061042408882359	-0.7500884945889574	-4.12638800482907e-05
C	-0.03431605911176394	-1.3915149245889575	2.86261199517093e-05
C	2.526984640888236	1.3287881454110426	-1.3293880048290697e-05
C	3.730471090888236	0.6268709054110425	1.7296119951709303e-05
C	3.6952209308882358	-0.8097001145889575	-2.2173880048290697e-05
C	2.458778930888236	-1.4518585045889576	1.9776119951709303e-05
C	-4.7929806491117635	1.7303089554110427	-9.153880048290698e-06
C	-4.391159399111764	3.028239945411043	4.361199517093022e-07
S	-2.6585472391117637	3.191145285411043	3.036119951709302e-06
C	-4.872375059111763	-1.4919854945889572	8.016119951709302e-06
C	-4.5350686291117634	-2.808158954588958	8.061199517093023e-07
S	-2.812543799111764	-3.0563221145889576	-9.338800482906978e-07
S	2.812029030888236	3.056268355411042	1.6361199517093024e-06
C	4.534595270888236	2.808415055411043	-2.3388004829069778e-07
C	4.872136020888236	1.4923096954110426	-6.7638800482906985e-06
C	4.793222900888236	-1.7299806245889575	1.0496119951709302e-05
C	4.391666560888236	-3.0279898445889577	-1.0638800482906978e-06
S	2.659076450888236	-3.1912307845889574	-3.783880048290698e-06
H	-5.005116439111764	3.9170889354110425	2.806119951709302e-06
H	-5.8345331291117635	1.4339592354110424	-6.338800482906977e-07
H	-5.898022329111764	-1.1446136045889574	6.961199517093023e-07
H	-5.192130029111764	-3.6656291845889575	-5.838800482906978e-07
H	5.005797320888236	-3.9167217645889574	-1.2638800482906978e-06
H	5.834704050888236	-1.4333670445889573	2.8461199517093022e-06
H	5.897868090888236	1.1451831554110425	5.661199517093022e-07
H	5.191434960888236	3.6660634954110423	3.8061199517093023e-06
H	0.061251950888235984	2.4765617054110427	2.4761199517093024e-06
H	-0.06126710911176403	-2.476898294588957	-3.4838800482906977e-06
C	-0.017727117894206976	-0.718455540065468	5.024369718248938
C	0.017713705535093716	0.7181123546182897	5.024295923823605
C	0.03434910745025152	1.390177097544219	6.244597413029717
C	0.01772999205588081	0.7195657179245106	7.5140839008687434
C	-0.01774151968064865	-0.7198026131769656	7.514180098394632
C	-0.034357115839052633	-1.390450926256917	6.244733318333216
C	0.03439120111150871	1.3911836671845041	8.738257862019102
C	0.01773110506863198	0.7195050695126745	9.962408346064759
C	-0.017737556802639057	-0.7198649224101062	9.962568562357744
C	-0.03439461007772945	-1.3915134722352336	8.73836222405801
C	0.03434857542802291	1.3903459258285262	11.231721952232038
C	0.017727454438759442	0.7185605249096313	12.452170870265016
C	-0.01771074070206751	-0.7180058513692935	12.452398272433468
C	-0.034355503201669066	-1.3902884164305565	11.23218709252764
C	0.039792707098383694	1.6109580494801437	3.904074890588494
C	0.07206241790812229	2.918015503224697	4.273729662261974
S	0.07713657538084731	3.1235842102349425	6.001791815777065
C	-0.03980265406935584	-1.611331437817587	3.9042583734555736
C	-0.0720744710559313	-2.9183777744977863	4.273956369364338
S	-0.07714775022010194	-3.123876083091439	6.002082941972493
S	0.07714352084430731	3.123808740523747	11.474030522346178
C	0.0720780445696944	2.918621121893002	13.202190842346287
C	0.03980737139809608	1.6116486437438886	13.572121405543967
C	-0.03978768445047999	-1.6106248351315142	13.572785929746374
C	-0.07205719519440269	-2.9177539815861917	13.203397918709399
S	-0.07713950224413986	-3.1236575427861486	11.475366093941835
H	0.0936236054856454	3.7911697025199227	3.638015391981245
H	0.031835096417989865	1.2890826176386476	2.870156321251466
H	-0.03184697113879175	-1.2894854592941247	2.8703476298748756
H	-0.0936368944384504	-3.7915423197802736	3.6382649210439704
H	-0.09361755680610165	-3.7907868410812497	13.839282965753405
H	-0.03182447462472911	-1.2884874431360358	14.606626676511505
H	0.03185778566869478	1.290049958868779	14.606110865947658
H	0.0936420820425579	3.7919583619526085	13.837656248503844
H	0.06115820753726592	2.4765635329537425	8.738404002708604
H	-0.061167403467337664	-2.4769012444731913	8.738215901980066
