72
78a TS45.0
C	-3.7305546091117634	-0.6267628745889575	-1.6903880048290698e-05
C	-3.695150849111764	0.8098059354110425	1.99761199517093e-05
C	-2.4586239491117636	1.4517441754110425	-1.7993880048290696e-05
C	-1.2060858991117642	0.7497896254110425	3.95761199517093e-05
C	-1.2415363991117638	-0.6895792245889574	-3.57638800482907e-05
C	-2.5271586391117644	-1.3288880845889575	1.7376119951709302e-05
C	0.03430128088823592	1.3911863754110425	-3.52238800482907e-05
C	1.241490780888236	0.6892835254110425	3.6966119951709296e-05
C	1.2061042408882359	-0.7500884945889574	-4.12638800482907e-05
C	-0.03431605911176394	-1.3915149245889575	2.86261199517093e-05
C	2.526984640888236	1.3287881454110426	-1.3293880048290697e-05
C	3.730471090888236	0.6268709054110425	1.7296119951709303e-05
C	3.6952209308882358	-0.8097001145889575	-2.2173880048290697e-05
C	2.458778930888236	-1.4518585045889576	1.9776119951709303e-05
C	-4.7929806491117635	1.7303089554110427	-9.153880048290698e-06
C	-4.391159399111764	3.028239945411043	4.361199517093022e-07
S	-2.6585472391117637	3.191145285411043	3.036119951709302e-06
C	-4.872375059111763	-1.4919854945889572	8.016119951709302e-06
C	-4.5350686291117634	-2.808158954588958	8.061199517093023e-07
S	-2.812543799111764	-3.0563221145889576	-9.338800482906978e-07
S	2.812029030888236	3.056268355411042	1.6361199517093024e-06
C	4.534595270888236	2.808415055411043	-2.3388004829069778e-07
C	4.872136020888236	1.4923096954110426	-6.7638800482906985e-06
C	4.793222900888236	-1.7299806245889575	1.0496119951709302e-05
C	4.391666560888236	-3.0279898445889577	-1.0638800482906978e-06
S	2.659076450888236	-3.1912307845889574	-3.783880048290698e-06
H	-5.005116439111764	3.9170889354110425	2.806119951709302e-06
H	-5.8345331291117635	1.4339592354110424	-6.338800482906977e-07
H	-5.898022329111764	-1.1446136045889574	6.961199517093023e-07
H	-5.192130029111764	-3.6656291845889575	-5.838800482906978e-07
H	5.005797320888236	-3.9167217645889574	-1.2638800482906978e-06
H	5.834704050888236	-1.4333670445889573	2.8461199517093022e-06
H	5.897868090888236	1.1451831554110425	5.661199517093022e-07
H	5.191434960888236	3.6660634954110423	3.8061199517093023e-06
H	0.061251950888235984	2.4765617054110427	2.4761199517093024e-06
H	-0.06126710911176403	-2.476898294588957	-3.4838800482906977e-06
C	-2.643086075834842	-0.6536193410387983	4.071174960017804
C	-2.6076866985575053	0.7829495772009056	4.071148824377168
C	-1.7284420083085639	1.4337112487518073	4.93400541811042
C	-0.8476553408850548	0.7409374606046731	5.831708645921854
C	-0.8830808309973239	-0.6984320070472194	5.831723427684704
C	-1.7970416497567643	-1.346919407205063	4.9341265923014275
C	0.03434178908858203	1.391185001344216	6.69727744809439
C	0.8830441323808426	0.6981353402440835	7.562933618117445
C	0.8476659002367479	-0.7412368849352163	7.562991624446072
C	-0.03435139874555558	-1.391514425512631	6.697396456278067
C	1.7969135291455545	1.3468175876883737	8.460438321800183
C	2.643026062232253	0.6537260440444727	9.323447673755012
C	2.607737138850449	-0.7828440186605197	9.323580595065849
C	1.728548092242958	-1.433825117696757	8.460790673941258
C	-3.3774907212598464	1.6953516816879601	3.279012316693926
C	-3.083912552200983	2.9959558398175656	3.5404044633891507
S	-1.8572856312470356	3.1713569772653294	4.762330764178282
C	-3.456951172820218	-1.5269411373495578	3.279154274166478
C	-3.2278887500225717	-2.84044140634689	3.540565166031582
S	-2.011364976253279	-3.0761083782788545	4.7625339586548945
S	2.010998557153393	3.0760502081281826	8.631786871910112
C	3.227553951466442	2.840693337956345	9.853779435612061
C	3.456782116962912	1.5272628625422187	10.115355258215144
C	3.3776620409834073	-1.6950223464766987	10.115837426917178
C	3.0842720659300547	-2.9957028400304484	9.854632515478276
S	1.8576583994075122	-3.171439360263107	8.632727575507111
H	-3.5117315737623813	3.880207970470567	3.0908882476404047
H	-4.116313807906386	1.3915257649763888	2.5479275171095885
H	-4.179860107816632	-1.187045664885645	2.5480637927791943
H	-3.6988162534378177	-3.7025083939011085	3.091062469483025
H	3.51221326943452	-3.879836627900781	10.304271023053317
H	4.116435969405091	-1.3909331173185748	10.846867812810043
H	4.1797527963080405	1.1876133094600316	10.846501407867112
H	3.698324057666103	3.7029369472441163	10.303124170043441
H	0.061223079257905835	2.476562044750793	6.69740741800866
H	-0.061236967326153004	-2.476899412643526	6.697270310829892
