72
78a cofacial 4.5A
C	-3.7305546091117634	-0.6267628745889575	-1.6903880048290698e-05
C	-3.695150849111764	0.8098059354110425	1.99761199517093e-05
C	-2.4586239491117636	1.4517441754110425	-1.7993880048290696e-05
C	-1.2060858991117642	0.7497896254110425	3.95761199517093e-05
C	-1.2415363991117638	-0.6895792245889574	-3.57638800482907e-05
C	-2.5271586391117644	-1.3288880845889575	1.7376119951709302e-05
C	0.03430128088823592	1.3911863754110425	-3.52238800482907e-05
C	1.241490780888236	0.6892835254110425	3.6966119951709296e-05
C	1.2061042408882359	-0.7500884945889574	-4.12638800482907e-05
C	-0.03431605911176394	-1.3915149245889575	2.86261199517093e-05
C	2.526984640888236	1.3287881454110426	-1.3293880048290697e-05
C	3.730471090888236	0.6268709054110425	1.7296119951709303e-05
C	3.6952209308882358	-0.8097001145889575	-2.2173880048290697e-05
C	2.458778930888236	-1.4518585045889576	1.9776119951709303e-05
C	-4.7929806491117635	1.7303089554110427	-9.153880048290698e-06
C	-4.391159399111764	3.028239945411043	4.361199517093022e-07
S	-2.6585472391117637	3.191145285411043	3.036119951709302e-06
C	-4.872375059111763	-1.4919854945889572	8.016119951709302e-06
C	-4.5350686291117634	-2.808158954588958	8.061199517093023e-07
S	-2.812543799111764	-3.0563221145889576	-9.338800482906978e-07
S	2.812029030888236	3.056268355411042	1.6361199517093024e-06
C	4.534595270888236	2.808415055411043	-2.3388004829069778e-07
C	4.872136020888236	1.4923096954110426	-6.7638800482906985e-06
C	4.793222900888236	-1.7299806245889575	1.0496119951709302e-05
C	4.391666560888236	-3.0279898445889577	-1.0638800482906978e-06
S	2.659076450888236	-3.1912307845889574	-3.783880048290698e-06
H	-5.005116439111764	3.9170889354110425	2.806119951709302e-06
H	-5.8345331291117635	1.4339592354110424	-6.338800482906977e-07
H	-5.898022329111764	-1.1446136045889574	6.961199517093023e-07
H	-5.192130029111764	-3.6656291845889575	-5.838800482906978e-07
H	5.005797320888236	-3.9167217645889574	-1.2638800482906978e-06
H	5.834704050888236	-1.4333670445889573	2.8461199517093022e-06
H	5.897868090888236	1.1451831554110425	5.661199517093022e-07
H	5.191434960888236	3.6660634954110423	3.8061199517093023e-06
H	0.061251950888235984	2.4765617054110427	2.4761199517093024e-06
H	-0.06126710911176403	-2.476898294588957	-3.4838800482906977e-06
C	-3.7305550949246946	-0.626763113665688	4.4999830961199185
C	-3.695151334924695	0.809805696334312	4.500019976119919
C	-2.458624434924695	1.451743936334312	4.499982006119919
C	-1.2060863849246954	0.749789386334312	4.500039576119919
C	-1.241536884924695	-0.6895794636656879	4.499964236119919
C	-2.5271591249246956	-1.3288883236656879	4.500017376119919
C	0.03430079507530476	1.391186136334312	4.499964776119919
C	1.2414902950753048	0.689283286334312	4.500036966119919
C	1.2061037550753047	-0.750088733665688	4.499958736119919
C	-0.0343165449246951	-1.391515163665688	4.500028626119919
C	2.5269841550753047	1.3287879063343122	4.499986706119919
C	3.730470605075305	0.626870666334312	4.5000172961199185
C	3.6952204450753046	-0.809700353665688	4.499977826119919
C	2.4587784450753047	-1.451858743665688	4.5000197761199185
C	-4.792981134924695	1.7303087163343123	4.4999908461199185
C	-4.391159884924695	3.0282397063343125	4.500000436119919
S	-2.658547724924695	3.1911450463343125	4.500003036119919
C	-4.872375544924695	-1.4919857336656877	4.500008016119919
C	-4.535069114924695	-2.8081591936656882	4.500000806119919
S	-2.8125442849246953	-3.056322353665688	4.499999066119919
S	2.8120285450753046	3.0562681163343117	4.500001636119919
C	4.534594785075305	2.8084148163343126	4.4999997661199185
C	4.872135535075305	1.4923094563343122	4.499993236119919
C	4.793222415075305	-1.729980863665688	4.500010496119919
C	4.391666075075305	-3.027990083665688	4.499998936119919
S	2.6590759650753046	-3.191231023665688	4.499996216119919
H	-5.005116924924695	3.917088696334312	4.500002806119919
H	-5.834533614924695	1.433958996334312	4.499999366119919
H	-5.898022814924695	-1.1446138436656879	4.500000696119919
H	-5.1921305149246955	-3.665629423665688	4.499999416119919
H	5.005796835075305	-3.916722003665688	4.4999987361199185
H	5.834703565075305	-1.4333672836656877	4.500002846119918
H	5.897867605075305	1.1451829163343121	4.500000566119919
H	5.1914344750753045	3.666063256334312	4.500003806119919
H	0.06125146507530482	2.4765614663343123	4.500002476119919
H	-0.06126759492469519	-2.4768985336656875	4.499996516119919
