72
78a PD long
C	-3.7305546091117634	-0.6267628745889575	-1.6903880048290698e-05
C	-3.695150849111764	0.8098059354110425	1.99761199517093e-05
C	-2.4586239491117636	1.4517441754110425	-1.7993880048290696e-05
C	-1.2060858991117642	0.7497896254110425	3.95761199517093e-05
C	-1.2415363991117638	-0.6895792245889574	-3.57638800482907e-05
C	-2.5271586391117644	-1.3288880845889575	1.7376119951709302e-05
C	0.03430128088823592	1.3911863754110425	-3.52238800482907e-05
C	1.241490780888236	0.6892835254110425	3.6966119951709296e-05
C	1.2061042408882359	-0.7500884945889574	-4.12638800482907e-05
C	-0.03431605911176394	-1.3915149245889575	2.86261199517093e-05
C	2.526984640888236	1.3287881454110426	-1.3293880048290697e-05
C	3.730471090888236	0.6268709054110425	1.7296119951709303e-05
C	3.6952209308882358	-0.8097001145889575	-2.2173880048290697e-05
C	2.458778930888236	-1.4518585045889576	1.9776119951709303e-05
C	-4.7929806491117635	1.7303089554110427	-9.153880048290698e-06
C	-4.391159399111764	3.028239945411043	4.361199517093022e-07
S	-2.6585472391117637	3.191145285411043	3.036119951709302e-06
C	-4.872375059111763	-1.4919854945889572	8.016119951709302e-06
C	-4.5350686291117634	-2.808158954588958	8.061199517093023e-07
S	-2.812543799111764	-3.0563221145889576	-9.338800482906978e-07
S	2.812029030888236	3.056268355411042	1.6361199517093024e-06
C	4.534595270888236	2.808415055411043	-2.3388004829069778e-07
C	4.872136020888236	1.4923096954110426	-6.7638800482906985e-06
C	4.793222900888236	-1.7299806245889575	1.0496119951709302e-05
C	4.391666560888236	-3.0279898445889577	-1.0638800482906978e-06
S	2.659076450888236	-3.1912307845889574	-3.783880048290698e-06
H	-5.005116439111764	3.9170889354110425	2.806119951709302e-06
H	-5.8345331291117635	1.4339592354110424	-6.338800482906977e-07
H	-5.898022329111764	-1.1446136045889574	6.961199517093023e-07
H	-5.192130029111764	-3.6656291845889575	-5.838800482906978e-07
H	5.005797320888236	-3.9167217645889574	-1.2638800482906978e-06
H	5.834704050888236	-1.4333670445889573	2.8461199517093022e-06
H	5.897868090888236	1.1451831554110425	5.661199517093022e-07
H	5.191434960888236	3.6660634954110423	3.8061199517093023e-06
H	0.061251950888235984	2.4765617054110427	2.4761199517093024e-06
H	-0.06126710911176403	-2.476898294588957	-3.4838800482906977e-06
C	-0.24746030368523864	-0.7127819396664371	3.4999834675793315
C	-0.21205654368523918	0.7237868703335629	3.5000203475793317
C	1.0244703563147612	1.365725110333563	3.4999823775793315
C	2.2770084063147604	0.663770560333563	3.5000399475793316
C	2.241557906314761	-0.775598289666437	3.4999646075793316
C	0.9559356663147603	-1.414907149666437	3.5000177475793315
C	3.517395586314761	1.305167310333563	3.4999651475793314
C	4.72458508631476	0.603264460333563	3.5000373375793314
C	4.689198546314761	-0.836107559666437	3.4999591075793317
C	3.448778246314761	-1.477533989666437	3.5000289975793315
C	6.010078946314761	1.2427690803335631	3.4999870775793314
C	7.213565396314761	0.5408518403335629	3.5000176675793315
C	7.17831523631476	-0.8957191796664371	3.4999781975793316
C	5.94187323631476	-1.537877569666437	3.5000201475793316
C	-1.3098863436852386	1.6442898903335632	3.4999912175793315
C	-0.9080650936852394	2.9422208803335637	3.5000008075793314
S	0.824547066314761	3.1051262203335637	3.5000034075793316
C	-1.3892807536852385	-1.5780045596664367	3.5000083875793315
C	-1.0519743236852386	-2.894178019666437	3.5000011775793314
S	0.6705505063147607	-3.142341179666437	3.4999994375793317
S	6.29512333631476	2.970249290333563	3.5000020075793317
C	8.017689576314762	2.7223959903335637	3.5000001375793315
C	8.35523032631476	1.4062906303335632	3.4999936075793316
C	8.276317206314761	-1.815999689666437	3.5000108675793316
C	7.874760866314761	-3.114008909666437	3.4999993075793316
S	6.14217075631476	-3.2772498496664366	3.4999965875793317
H	-1.522022133685239	3.8310698703335633	3.5000031775793317
H	-2.3514388236852386	1.347940170333563	3.4999997375793317
H	-2.414928023685239	-1.230632669666437	3.5000010675793316
H	-1.7090357236852394	-3.7516482496664367	3.4999997875793314
H	8.48889162631476	-4.002740829666437	3.4999991075793315
H	9.31779835631476	-1.5193861096664367	3.5000032175793314
H	9.38096239631476	1.059164090333563	3.5000009375793315
H	8.67452926631476	3.580044430333563	3.5000041775793314
H	3.544346256314761	2.3905426403335635	3.5000028475793314
H	3.421827196314761	-2.5629173596664363	3.4999968875793317
