72
78a cofacial 4.0A
C	-3.7305546091117634	-0.6267628745889575	-1.6903880048290698e-05
C	-3.695150849111764	0.8098059354110425	1.99761199517093e-05
C	-2.4586239491117636	1.4517441754110425	-1.7993880048290696e-05
C	-1.2060858991117642	0.7497896254110425	3.95761199517093e-05
C	-1.2415363991117638	-0.6895792245889574	-3.57638800482907e-05
C	-2.5271586391117644	-1.3288880845889575	1.7376119951709302e-05
C	0.03430128088823592	1.3911863754110425	-3.52238800482907e-05
C	1.241490780888236	0.6892835254110425	3.6966119951709296e-05
C	1.2061042408882359	-0.7500884945889574	-4.12638800482907e-05
C	-0.03431605911176394	-1.3915149245889575	2.86261199517093e-05
C	2.526984640888236	1.3287881454110426	-1.3293880048290697e-05
C	3.730471090888236	0.6268709054110425	1.7296119951709303e-05
C	3.6952209308882358	-0.8097001145889575	-2.2173880048290697e-05
C	2.458778930888236	-1.4518585045889576	1.9776119951709303e-05
C	-4.7929806491117635	1.7303089554110427	-9.153880048290698e-06
C	-4.391159399111764	3.028239945411043	4.361199517093022e-07
S	-2.6585472391117637	3.191145285411043	3.036119951709302e-06
C	-4.872375059111763	-1.4919854945889572	8.016119951709302e-06
C	-4.5350686291117634	-2.808158954588958	8.061199517093023e-07
S	-2.812543799111764	-3.0563221145889576	-9.338800482906978e-07
S	2.812029030888236	3.056268355411042	1.6361199517093024e-06
C	4.534595270888236	2.808415055411043	-2.3388004829069778e-07
C	4.872136020888236	1.4923096954110426	-6.7638800482906985e-06
C	4.793222900888236	-1.7299806245889575	1.0496119951709302e-05
C	4.391666560888236	-3.0279898445889577	-1.0638800482906978e-06
S	2.659076450888236	-3.1912307845889574	-3.783880048290698e-06
H	-5.005116439111764	3.9170889354110425	2.806119951709302e-06
H	-5.8345331291117635	1.4339592354110424	-6.338800482906977e-07
H	-5.898022329111764	-1.1446136045889574	6.961199517093023e-07
H	-5.192130029111764	-3.6656291845889575	-5.838800482906978e-07
H	5.005797320888236	-3.9167217645889574	-1.2638800482906978e-06
H	5.834704050888236	-1.4333670445889573	2.8461199517093022e-06
H	5.897868090888236	1.1451831554110425	5.661199517093022e-07
H	5.191434960888236	3.6660634954110423	3.8061199517093023e-06
H	0.061251950888235984	2.4765617054110427	2.4761199517093024e-06
H	-0.06126710911176403	-2.476898294588957	-3.4838800482906977e-06
C	-3.73055504094548	-0.6267630871016069	3.9999830961199225
C	-3.6951512809454807	0.8098057228983931	4.000019976119923
C	-2.4586243809454804	1.4517439628983932	3.9999820061199225
C	-1.2060863309454808	0.7497894128983932	4.000039576119923
C	-1.2415368309454804	-0.6895794371016067	3.9999642361199226
C	-2.527159070945481	-1.3288882971016067	4.0000173761199225
C	0.034300849054519335	1.3911861628983933	3.9999647761199224
C	1.2414903490545195	0.6892833128983932	4.000036966119922
C	1.2061038090545193	-0.7500887071016068	3.9999587361199223
C	-0.034316490945480525	-1.3915151371016068	4.0000286261199225
C	2.526984209054519	1.3287879328983934	3.9999867061199224
C	3.7304706590545194	0.6268706928983931	4.000017296119922
C	3.695220499054519	-0.8097003271016069	3.9999778261199226
C	2.458778499054519	-1.4518587171016069	4.000019776119922
C	-4.79298108094548	1.7303087428983934	3.9999908461199225
C	-4.3911598309454805	3.0282397328983937	4.000000436119922
S	-2.6585476709454805	3.1911450728983937	4.000003036119923
C	-4.87237549094548	-1.4919857071016065	4.0000080161199225
C	-4.53506906094548	-2.808159167101607	4.000000806119923
S	-2.812544230945481	-3.056322327101607	3.9999990661199223
S	2.812028599054519	3.056268142898393	4.000001636119922
C	4.534594839054519	2.8084148428983937	3.9999997661199225
C	4.87213558905452	1.4923094828983934	3.999993236119922
C	4.79322246905452	-1.7299808371016068	4.0000104961199225
C	4.39166612905452	-3.027990057101607	3.999998936119922
S	2.659076019054519	-3.1912309971016066	3.9999962161199223
H	-5.00511687094548	3.9170887228983933	4.000002806119922
H	-5.83453356094548	1.4339590228983932	3.9999993661199222
H	-5.89802276094548	-1.1446138171016067	4.000000696119923
H	-5.192130460945481	-3.6656293971016067	3.9999994161199224
H	5.00579688905452	-3.9167219771016066	3.9999987361199225
H	5.83470361905452	-1.4333672571016065	4.000002846119922
H	5.89786765905452	1.1451829428983933	4.0000005661199225
H	5.191434529054519	3.666063282898393	4.000003806119922
H	0.0612515190545194	2.4765614928983934	4.000002476119922
H	-0.06126754094548061	-2.4768985071016063	3.9999965161199222
