72
78a TL45.0
C	-3.7305546091117634	-0.6267628745889575	-1.6903880048290698e-05
C	-3.695150849111764	0.8098059354110425	1.99761199517093e-05
C	-2.4586239491117636	1.4517441754110425	-1.7993880048290696e-05
C	-1.2060858991117642	0.7497896254110425	3.95761199517093e-05
C	-1.2415363991117638	-0.6895792245889574	-3.57638800482907e-05
C	-2.5271586391117644	-1.3288880845889575	1.7376119951709302e-05
C	0.03430128088823592	1.3911863754110425	-3.52238800482907e-05
C	1.241490780888236	0.6892835254110425	3.6966119951709296e-05
C	1.2061042408882359	-0.7500884945889574	-4.12638800482907e-05
C	-0.03431605911176394	-1.3915149245889575	2.86261199517093e-05
C	2.526984640888236	1.3287881454110426	-1.3293880048290697e-05
C	3.730471090888236	0.6268709054110425	1.7296119951709303e-05
C	3.6952209308882358	-0.8097001145889575	-2.2173880048290697e-05
C	2.458778930888236	-1.4518585045889576	1.9776119951709303e-05
C	-4.7929806491117635	1.7303089554110427	-9.153880048290698e-06
C	-4.391159399111764	3.028239945411043	4.361199517093022e-07
S	-2.6585472391117637	3.191145285411043	3.036119951709302e-06
C	-4.872375059111763	-1.4919854945889572	8.016119951709302e-06
C	-4.5350686291117634	-2.808158954588958	8.061199517093023e-07
S	-2.812543799111764	-3.0563221145889576	-9.338800482906978e-07
S	2.812029030888236	3.056268355411042	1.6361199517093024e-06
C	4.534595270888236	2.808415055411043	-2.3388004829069778e-07
C	4.872136020888236	1.4923096954110426	-6.7638800482906985e-06
C	4.793222900888236	-1.7299806245889575	1.0496119951709302e-05
C	4.391666560888236	-3.0279898445889577	-1.0638800482906978e-06
S	2.659076450888236	-3.1912307845889574	-3.783880048290698e-06
H	-5.005116439111764	3.9170889354110425	2.806119951709302e-06
H	-5.8345331291117635	1.4339592354110424	-6.338800482906977e-07
H	-5.898022329111764	-1.1446136045889574	6.961199517093023e-07
H	-5.192130029111764	-3.6656291845889575	-5.838800482906978e-07
H	5.005797320888236	-3.9167217645889574	-1.2638800482906978e-06
H	5.834704050888236	-1.4333670445889573	2.8461199517093022e-06
H	5.897868090888236	1.1451831554110425	5.661199517093022e-07
H	5.191434960888236	3.6660634954110423	3.8061199517093023e-06
H	0.061251950888235984	2.4765617054110427	2.4761199517093024e-06
H	-0.06126710911176403	-2.476898294588957	-3.4838800482906977e-06
C	-3.725356886581821	-0.4163203703392107	-5.737851336768155
C	-3.700345030703086	0.5994616435683578	-4.721709279408814
C	-2.468678784398795	1.0445833168739662	-4.246368945008354
C	-1.211290928493494	0.5390060869539841	-4.720667590047654
C	-1.236328603157414	-0.4787288291918415	-5.738816982465957
C	-2.5171006972538397	-0.92164660193732	-6.213144985909798
C	0.024239466032681505	0.9837429018045526	-4.245668682119941
C	1.236286238867714	0.47851972110628765	-4.720712114981695
C	1.211312586153138	-0.5392158565747301	-5.738864675202589
C	-0.02425062218788333	-0.9839699533980687	-6.213888613749
C	2.5169285104590666	0.9215748442149294	-4.246245935232666
C	3.725273724639139	0.41639766110560666	-4.721393601871588
C	3.700415502529617	-0.599385195403672	-5.737536371396201
C	2.4688356630497714	-1.0446660047251792	-6.213028031478663
C	-4.804632636981608	1.2584765303681984	-4.090199705418394
C	-4.4122660185010085	2.1735725695541155	-3.165682075724802
S	-2.681140861115193	2.2762665124660333	-3.0202768132950037
C	-4.860719242355939	-1.020043197600884	-6.369385335657436
C	-4.513958301296466	-1.9533865844447136	-7.293893408402147
S	-2.78994698772317	-2.141359364255292	-7.43924803912405
S	2.789433816936123	2.141325121631935	-3.0201185767914622
C	4.513484295411662	1.953571293796328	-3.1652535392004735
C	4.860479010473732	1.02027389853455	-4.089708901178816
C	4.804873577749719	-1.2582464511338662	-6.368883146200517
C	4.412772421890723	-2.1733983436650792	-7.293452844332256
S	2.6816717387119313	-2.2763297260950233	-7.439095039379838
H	-5.032538971938541	2.806678921153055	-2.548078979234702
H	-5.843857012702626	1.0563959190487544	-4.317863599452642
H	-5.888694427336597	-0.7669327512658176	-6.141741593168755
H	-5.164703731809107	-2.555111906495443	-7.911503236835932
H	5.033218180134373	-2.806424683120852	-7.910968617926574
H	5.844024713576057	-1.0559793148756353	-6.141033361901763
H	5.8885372065084125	0.7673363645752316	-4.3171777204334125
H	5.164006720965027	2.555422390605516	-2.547519732345291
H	0.04333850041684146	1.7511914536891926	-3.4779292119198546
H	-0.0433500759701714	-1.7514281406317025	-6.981629821261658
