72
111a_F cofacial 3.5A
C	-6.147992079692482	-0.5314639486797212	3.8842251147649815e-05
C	-6.106175139692483	0.8902986413202787	-3.3147748852350185e-05
C	-4.917230669692483	1.5506908713202787	4.519225114764981e-05
C	-3.6748013896924827	0.8354623713202787	-5.127774885235018e-05
C	-3.7175493496924825	-0.6199689486797213	5.472225114764982e-05
C	-4.999979609692483	-1.2607744286797213	-5.2397748852350186e-05
C	-2.4385431796924824	1.4651683813202787	-1.3037748852350183e-05
C	-1.2110827896924825	0.7616063713202788	6.522225114764983e-05
C	-1.2535664196924825	-0.6908676586797211	-8.458774885235017e-05
C	-2.5202872896924826	-1.321153938679721	1.9882251147649817e-05
C	0.04069101030751737	1.3938391613202787	-5.212774885235018e-05
C	1.2534410603075175	0.6896481013202788	1.5312251147649818e-05
C	1.2111364303075174	-0.7628313886797213	-5.304774885235018e-05
C	-0.04072815969248261	-1.3950984786797214	6.921225114764982e-05
C	2.5198574503075175	1.3203866513202787	2.8262251147649818e-05
C	3.7172978003075174	0.6196759713202787	-5.368774885235018e-05
C	3.6750361603075175	-0.8357690486797213	4.1142251147649816e-05
C	2.4389277303075176	-1.4659595886797214	-1.0597748852350183e-05
C	4.999310870307517	1.2612616913202788	4.5122251147649816e-05
C	6.147715600307517	0.5326372813202788	-3.2687748852350187e-05
C	6.106526330307518	-0.8891447986797212	2.3102251147649816e-05
C	4.917928530307518	-1.5502393686797211	-3.6577748852350185e-05
F	-4.935325359692483	2.8866659313202785	4.412251147649817e-06
F	-7.262667319692483	1.5525653013202787	-1.2677488523501832e-06
F	-7.3414502796924825	-1.124529078679721	-4.137748852350184e-06
F	-5.096721299692483	-2.593392988679722	8.022511476498168e-07
F	-2.5634615396924825	-2.6577235986797216	-1.6677488523501832e-06
F	-0.07972653969248261	-2.7303561086797217	-9.177488523501832e-07
F	2.4040928803075174	-2.8027655286797213	1.5492251147649816e-05
F	4.936912590307517	-2.8862126086797213	2.4622511476498166e-06
F	7.263352400307517	-1.5508239986797212	-3.777748852350183e-06
F	7.340858520307518	1.1263432013202788	5.0422511476498165e-06
F	5.095169110307517	2.5939329513202787	-6.357748852350184e-06
F	2.5625179103075175	2.6569442913202788	5.352251147649817e-06
F	0.0796870603075174	2.7290609213202788	6.212251147649816e-06
F	-2.4031957096924828	2.8019326313202786	-4.477748852350183e-06
C	-6.147991917345787	-0.5314637144130756	3.500038842251136
C	-6.106174977345788	0.8902988755869243	3.499966852251136
C	-4.917230507345788	1.5506911055869244	3.500045192251136
C	-3.674801227345787	0.8354626055869243	3.499948722251136
C	-3.717549187345787	-0.6199687144130757	3.5000547222511362
C	-4.999979447345788	-1.2607741944130757	3.499947602251136
C	-2.4385430173457867	1.4651686155869243	3.499986962251136
C	-1.211082627345787	0.7616066055869244	3.500065222251136
C	-1.253566257345787	-0.6908674244130755	3.499915412251136
C	-2.520287127345787	-1.3211537044130754	3.500019882251136
C	0.040691172654212814	1.3938393955869244	3.499947872251136
C	1.2534412226542129	0.6896483355869244	3.500015312251136
C	1.2111365926542128	-0.7628311544130757	3.499946952251136
C	-0.04072799734578717	-1.3950982444130757	3.500069212251136
C	2.519857612654213	1.3203868855869243	3.5000282622511363
C	3.717297962654213	0.6196762055869244	3.499946312251136
C	3.675036322654213	-0.8357688144130757	3.500041142251136
C	2.4389278926542133	-1.4659593544130758	3.499989402251136
C	4.999311032654212	1.2612619255869244	3.500045122251136
C	6.1477157626542125	0.5326375155869244	3.499967312251136
C	6.106526492654213	-0.8891445644130755	3.500023102251136
C	4.917928692654213	-1.5502391344130755	3.499963422251136
F	-4.9353251973457875	2.886666165586924	3.500004412251136
F	-7.2626671573457875	1.5525655355869243	3.499998732251136
F	-7.341450117345787	-1.1245288444130754	3.499995862251136
F	-5.096721137345788	-2.593392754413076	3.500000802251136
F	-2.563461377345787	-2.657723364413076	3.499998332251136
F	-0.07972637734578718	-2.730355874413076	3.499999082251136
F	2.404093042654213	-2.8027652944130756	3.500015492251136
F	4.936912752654212	-2.8862123744130757	3.5000024622511363
F	7.263352562654212	-1.5508237644130756	3.499996222251136
F	7.340858682654213	1.1263434355869244	3.500005042251136
F	5.095169272654212	2.5939331855869243	3.499993642251136
F	2.562518072654213	2.6569445255869244	3.500005352251136
F	0.07968722265421284	2.7290611555869244	3.500006212251136
F	-2.403195547345787	2.8019328655869242	3.4999955222511363
