72
111a_F PD short
C	-6.147992079692482	-0.5314639486797212	3.8842251147649815e-05
C	-6.106175139692483	0.8902986413202787	-3.3147748852350185e-05
C	-4.917230669692483	1.5506908713202787	4.519225114764981e-05
C	-3.6748013896924827	0.8354623713202787	-5.127774885235018e-05
C	-3.7175493496924825	-0.6199689486797213	5.472225114764982e-05
C	-4.999979609692483	-1.2607744286797213	-5.2397748852350186e-05
C	-2.4385431796924824	1.4651683813202787	-1.3037748852350183e-05
C	-1.2110827896924825	0.7616063713202788	6.522225114764983e-05
C	-1.2535664196924825	-0.6908676586797211	-8.458774885235017e-05
C	-2.5202872896924826	-1.321153938679721	1.9882251147649817e-05
C	0.04069101030751737	1.3938391613202787	-5.212774885235018e-05
C	1.2534410603075175	0.6896481013202788	1.5312251147649818e-05
C	1.2111364303075174	-0.7628313886797213	-5.304774885235018e-05
C	-0.04072815969248261	-1.3950984786797214	6.921225114764982e-05
C	2.5198574503075175	1.3203866513202787	2.8262251147649818e-05
C	3.7172978003075174	0.6196759713202787	-5.368774885235018e-05
C	3.6750361603075175	-0.8357690486797213	4.1142251147649816e-05
C	2.4389277303075176	-1.4659595886797214	-1.0597748852350183e-05
C	4.999310870307517	1.2612616913202788	4.5122251147649816e-05
C	6.147715600307517	0.5326372813202788	-3.2687748852350187e-05
C	6.106526330307518	-0.8891447986797212	2.3102251147649816e-05
C	4.917928530307518	-1.5502393686797211	-3.6577748852350185e-05
F	-4.935325359692483	2.8866659313202785	4.412251147649817e-06
F	-7.262667319692483	1.5525653013202787	-1.2677488523501832e-06
F	-7.3414502796924825	-1.124529078679721	-4.137748852350184e-06
F	-5.096721299692483	-2.593392988679722	8.022511476498168e-07
F	-2.5634615396924825	-2.6577235986797216	-1.6677488523501832e-06
F	-0.07972653969248261	-2.7303561086797217	-9.177488523501832e-07
F	2.4040928803075174	-2.8027655286797213	1.5492251147649816e-05
F	4.936912590307517	-2.8862126086797213	2.4622511476498166e-06
F	7.263352400307517	-1.5508239986797212	-3.777748852350183e-06
F	7.340858520307518	1.1263432013202788	5.0422511476498165e-06
F	5.095169110307517	2.5939329513202787	-6.357748852350184e-06
F	2.5625179103075175	2.6569442913202788	5.352251147649817e-06
F	0.0796870603075174	2.7290609213202788	6.212251147649816e-06
F	-2.4031957096924828	2.8019326313202786	-4.477748852350183e-06
C	-6.209277132023561	-2.6310662659947552	3.5000389856272216
C	-6.167460192023562	-1.2093036759947555	3.4999669956272217
C	-4.978515722023562	-0.5489114459947555	3.5000453356272216
C	-3.7360864420235607	-1.2641399459947555	3.4999488656272217
C	-3.7788344020235605	-2.7195712659947557	3.5000548656272215
C	-5.061264662023562	-3.3603767459947558	3.4999477456272214
C	-2.4998282320235603	-0.6344339359947555	3.4999871056272216
C	-1.2723678420235607	-1.3379959459947555	3.5000653656272216
C	-1.3148514720235607	-2.7904699759947555	3.4999155556272217
C	-2.5815723420235606	-3.4207562559947555	3.5000200256272214
C	-0.020594042023560796	-0.7057631559947555	3.4999480156272216
C	1.1921560079764393	-1.4099542159947553	3.5000154556272216
C	1.1498513779764392	-2.8624337059947558	3.4999470956272214
C	-0.10201321202356078	-3.494700795994756	3.5000693556272218
C	2.4585723979764396	-0.7792156659947556	3.5000284056272215
C	3.6560127479764395	-1.4799263459947554	3.4999464556272217
C	3.6137511079764395	-2.935371365994756	3.5000412856272214
C	2.3776426779764397	-3.565561905994756	3.4999895456272214
C	4.938025817976438	-0.8383406259947555	3.5000452656272216
C	6.0864305479764385	-1.5669650359947553	3.4999674556272216
C	6.045241277976439	-2.9887471159947556	3.500023245627222
C	4.856643477976439	-3.649841685994755	3.4999635656272217
F	-4.9966104120235615	0.7870636140052443	3.5000045556272217
F	-7.3239523720235615	-0.5470370159947555	3.4999988756272216
F	-7.402735332023561	-3.2241313959947555	3.4999960056272217
F	-5.158006352023562	-4.692995305994756	3.5000009456272214
F	-2.6247465920235604	-4.757325915994755	3.4999984756272218
F	-0.14101159202356076	-4.8299584259947554	3.4999992256272217
F	2.3428078279764395	-4.902367845994755	3.5000156356272214
F	4.875627537976438	-4.985814925994755	3.5000026056272215
F	7.202067347976438	-3.6504263159947556	3.4999963656272217
F	7.279573467976439	-0.9732591159947555	3.5000051856272214
F	5.033884057976438	0.4943306340052445	3.4999937856272214
F	2.5012328579764396	0.5573419740052445	3.5000054956272217
F	0.018402007976439236	0.6294586040052446	3.5000063556272214
F	-2.4644807620235607	0.7023303140052444	3.4999956656272215
