72
111a_F TL45.0
C	-6.147992079692482	-0.5314639486797212	3.8842251147649815e-05
C	-6.106175139692483	0.8902986413202787	-3.3147748852350185e-05
C	-4.917230669692483	1.5506908713202787	4.519225114764981e-05
C	-3.6748013896924827	0.8354623713202787	-5.127774885235018e-05
C	-3.7175493496924825	-0.6199689486797213	5.472225114764982e-05
C	-4.999979609692483	-1.2607744286797213	-5.2397748852350186e-05
C	-2.4385431796924824	1.4651683813202787	-1.3037748852350183e-05
C	-1.2110827896924825	0.7616063713202788	6.522225114764983e-05
C	-1.2535664196924825	-0.6908676586797211	-8.458774885235017e-05
C	-2.5202872896924826	-1.321153938679721	1.9882251147649817e-05
C	0.04069101030751737	1.3938391613202787	-5.212774885235018e-05
C	1.2534410603075175	0.6896481013202788	1.5312251147649818e-05
C	1.2111364303075174	-0.7628313886797213	-5.304774885235018e-05
C	-0.04072815969248261	-1.3950984786797214	6.921225114764982e-05
C	2.5198574503075175	1.3203866513202787	2.8262251147649818e-05
C	3.7172978003075174	0.6196759713202787	-5.368774885235018e-05
C	3.6750361603075175	-0.8357690486797213	4.1142251147649816e-05
C	2.4389277303075176	-1.4659595886797214	-1.0597748852350183e-05
C	4.999310870307517	1.2612616913202788	4.5122251147649816e-05
C	6.147715600307517	0.5326372813202788	-3.2687748852350187e-05
C	6.106526330307518	-0.8891447986797212	2.3102251147649816e-05
C	4.917928530307518	-1.5502393686797211	-3.6577748852350185e-05
F	-4.935325359692483	2.8866659313202785	4.412251147649817e-06
F	-7.262667319692483	1.5525653013202787	-1.2677488523501832e-06
F	-7.3414502796924825	-1.124529078679721	-4.137748852350184e-06
F	-5.096721299692483	-2.593392988679722	8.022511476498168e-07
F	-2.5634615396924825	-2.6577235986797216	-1.6677488523501832e-06
F	-0.07972653969248261	-2.7303561086797217	-9.177488523501832e-07
F	2.4040928803075174	-2.8027655286797213	1.5492251147649816e-05
F	4.936912590307517	-2.8862126086797213	2.4622511476498166e-06
F	7.263352400307517	-1.5508239986797212	-3.777748852350183e-06
F	7.340858520307518	1.1263432013202788	5.0422511476498165e-06
F	5.095169110307517	2.5939329513202787	-6.357748852350184e-06
F	2.5625179103075175	2.6569442913202788	5.352251147649817e-06
F	0.0796870603075174	2.7290609213202788	6.212251147649816e-06
F	-2.4031957096924828	2.8019326313202786	-4.477748852350183e-06
C	-6.1419204816574275	-0.3234458825886881	-5.243004033317255
C	-6.112257092440506	0.6819402584237814	-4.237282245357358
C	-4.929251710006471	1.1388614015885177	-3.7459288181929162
C	-3.6810207777445174	0.6223955023600727	-4.225892199086332
C	-3.711328060239479	-0.4068225063042092	-5.2554063980297006
C	-4.987962638816646	-0.8490699444497207	-5.73486484531291
C	-2.450450504974941	1.057234749084443	-3.7552801979975223
C	-1.2172879897941709	0.5490255769896913	-4.227182905778079
C	-1.247350991586361	-0.4779220244460717	-5.254782306767604
C	-2.5083743166731347	-0.9130123848442254	-5.72633200726531
C	0.02877563082032406	0.9856295946956377	-3.754574880039235
C	1.2472370702820683	0.4771087636317602	-4.227233342595442
C	1.217351390108705	-0.5499017983148707	-5.254775315963842
C	-0.028802806178392495	-0.9865327732233219	-5.727405986326016
C	2.507949705537638	0.9124386477168336	-3.7552872282837853
C	3.71107861504696	0.40661604991970274	-4.225907226000263
C	3.681257878769372	-0.6226079086495848	-5.2554289733401856
C	2.4508417659984665	-1.0577816281745953	-5.726389898861705
C	4.987289614323002	0.8494248327919911	-3.7459117836675606
C	6.141633481919328	0.32427322365208033	-4.237270088318183
C	6.112598106908254	-0.6811206150363739	-5.243004157647667
C	4.929944922410906	-1.1385547129442253	-5.7348336560305295
F	-4.958752864966631	2.0840549147475547	-2.802056112289572
F	-7.274118622131719	1.1602548540971869	-3.7930253087154826
F	-7.330014302188585	-0.7327292263965342	-5.686838398270654
F	-5.073298158814931	-1.7909170627453637	-6.678725554663387
F	-2.5401204604887346	-1.8580590773311787	-6.6719330879184
F	-0.05638432619850067	-1.930652726937204	-6.672027915876
F	2.4274339783414702	-2.0031003621619283	-6.671952247585514
F	4.960335245974842	-2.0837533058735485	-6.678687957399344
F	7.274788322147912	-1.1590260534057917	-5.686835450195802
F	7.329406735782781	0.7340162380358044	-3.792993026133904
F	5.071741418947559	1.791315559480631	-2.8020308358093695
F	2.539183207382733	1.8575126511621003	-2.809736681359361
F	0.05635537105949117	1.9297325286883926	-2.809986688470408
F	-2.4265305838786655	2.0024951237751867	-2.8097122389374665
