72
111a_F cofacial 5.0A
C	-6.147992079692482	-0.5314639486797212	3.8842251147649815e-05
C	-6.106175139692483	0.8902986413202787	-3.3147748852350185e-05
C	-4.917230669692483	1.5506908713202787	4.519225114764981e-05
C	-3.6748013896924827	0.8354623713202787	-5.127774885235018e-05
C	-3.7175493496924825	-0.6199689486797213	5.472225114764982e-05
C	-4.999979609692483	-1.2607744286797213	-5.2397748852350186e-05
C	-2.4385431796924824	1.4651683813202787	-1.3037748852350183e-05
C	-1.2110827896924825	0.7616063713202788	6.522225114764983e-05
C	-1.2535664196924825	-0.6908676586797211	-8.458774885235017e-05
C	-2.5202872896924826	-1.321153938679721	1.9882251147649817e-05
C	0.04069101030751737	1.3938391613202787	-5.212774885235018e-05
C	1.2534410603075175	0.6896481013202788	1.5312251147649818e-05
C	1.2111364303075174	-0.7628313886797213	-5.304774885235018e-05
C	-0.04072815969248261	-1.3950984786797214	6.921225114764982e-05
C	2.5198574503075175	1.3203866513202787	2.8262251147649818e-05
C	3.7172978003075174	0.6196759713202787	-5.368774885235018e-05
C	3.6750361603075175	-0.8357690486797213	4.1142251147649816e-05
C	2.4389277303075176	-1.4659595886797214	-1.0597748852350183e-05
C	4.999310870307517	1.2612616913202788	4.5122251147649816e-05
C	6.147715600307517	0.5326372813202788	-3.2687748852350187e-05
C	6.106526330307518	-0.8891447986797212	2.3102251147649816e-05
C	4.917928530307518	-1.5502393686797211	-3.6577748852350185e-05
F	-4.935325359692483	2.8866659313202785	4.412251147649817e-06
F	-7.262667319692483	1.5525653013202787	-1.2677488523501832e-06
F	-7.3414502796924825	-1.124529078679721	-4.137748852350184e-06
F	-5.096721299692483	-2.593392988679722	8.022511476498168e-07
F	-2.5634615396924825	-2.6577235986797216	-1.6677488523501832e-06
F	-0.07972653969248261	-2.7303561086797217	-9.177488523501832e-07
F	2.4040928803075174	-2.8027655286797213	1.5492251147649816e-05
F	4.936912590307517	-2.8862126086797213	2.4622511476498166e-06
F	7.263352400307517	-1.5508239986797212	-3.777748852350183e-06
F	7.340858520307518	1.1263432013202788	5.0422511476498165e-06
F	5.095169110307517	2.5939329513202787	-6.357748852350184e-06
F	2.5625179103075175	2.6569442913202788	5.352251147649817e-06
F	0.0796870603075174	2.7290609213202788	6.212251147649816e-06
F	-2.4031957096924828	2.8019326313202786	-4.477748852350183e-06
C	-6.1479918477686315	-0.5314636140130845	5.000038842251131
C	-6.106174907768632	0.8902989759869154	4.999966852251131
C	-4.917230437768632	1.5506912059869153	5.000045192251131
C	-3.674801157768632	0.8354627059869154	4.999948722251131
C	-3.7175491177686317	-0.6199686140130846	5.0000547222511305
C	-4.999979377768632	-1.2607740940130847	4.99994760225113
C	-2.4385429477686316	1.4651687159869153	4.999986962251131
C	-1.211082557768632	0.7616067059869155	5.000065222251131
C	-1.253566187768632	-0.6908673240130844	4.999915412251131
C	-2.520287057768632	-1.3211536040130845	5.000019882251131
C	0.040691242231368	1.3938394959869154	4.999947872251131
C	1.253441292231368	0.6896484359869155	5.000015312251131
C	1.211136662231368	-0.7628310540130846	4.999946952251131
C	-0.04072792776863199	-1.3950981440130847	5.000069212251131
C	2.5198576822313683	1.3203869859869153	5.0000282622511305
C	3.7172980322313682	0.6196763059869155	4.999946312251131
C	3.6750363922313682	-0.8357687140130846	5.00004114225113
C	2.4389279622313684	-1.4659592540130848	4.99998940225113
C	4.999311102231368	1.2612620259869154	5.000045122251131
C	6.147715832231368	0.5326376159869155	4.999967312251131
C	6.106526562231369	-0.8891444640130844	5.000023102251131
C	4.9179287622313685	-1.5502390340130845	4.999963422251131
F	-4.935325127768632	2.886666265986915	5.000004412251131
F	-7.262667087768632	1.5525656359869153	4.999998732251131
F	-7.341450047768632	-1.1245287440130844	4.999995862251131
F	-5.096721067768632	-2.593392654013085	5.00000080225113
F	-2.5634613077686317	-2.657723264013085	4.999998332251131
F	-0.07972630776863199	-2.730355774013085	4.999999082251131
F	2.4040931122313682	-2.8027651940130847	5.000015492251131
F	4.936912822231368	-2.8862122740130847	5.000002462251131
F	7.263352632231368	-1.5508236640130846	4.999996222251131
F	7.340858752231369	1.1263435359869154	5.00000504225113
F	5.095169342231368	2.5939332859869153	4.99999364225113
F	2.5625181422313683	2.6569446259869154	5.000005352251131
F	0.07968729223136803	2.7290612559869154	5.00000621225113
F	-2.403195477768632	2.801932965986915	4.9999955222511305
