72
111a_F PD long
C	-6.147992079692482	-0.5314639486797212	3.8842251147649815e-05
C	-6.106175139692483	0.8902986413202787	-3.3147748852350185e-05
C	-4.917230669692483	1.5506908713202787	4.519225114764981e-05
C	-3.6748013896924827	0.8354623713202787	-5.127774885235018e-05
C	-3.7175493496924825	-0.6199689486797213	5.472225114764982e-05
C	-4.999979609692483	-1.2607744286797213	-5.2397748852350186e-05
C	-2.4385431796924824	1.4651683813202787	-1.3037748852350183e-05
C	-1.2110827896924825	0.7616063713202788	6.522225114764983e-05
C	-1.2535664196924825	-0.6908676586797211	-8.458774885235017e-05
C	-2.5202872896924826	-1.321153938679721	1.9882251147649817e-05
C	0.04069101030751737	1.3938391613202787	-5.212774885235018e-05
C	1.2534410603075175	0.6896481013202788	1.5312251147649818e-05
C	1.2111364303075174	-0.7628313886797213	-5.304774885235018e-05
C	-0.04072815969248261	-1.3950984786797214	6.921225114764982e-05
C	2.5198574503075175	1.3203866513202787	2.8262251147649818e-05
C	3.7172978003075174	0.6196759713202787	-5.368774885235018e-05
C	3.6750361603075175	-0.8357690486797213	4.1142251147649816e-05
C	2.4389277303075176	-1.4659595886797214	-1.0597748852350183e-05
C	4.999310870307517	1.2612616913202788	4.5122251147649816e-05
C	6.147715600307517	0.5326372813202788	-3.2687748852350187e-05
C	6.106526330307518	-0.8891447986797212	2.3102251147649816e-05
C	4.917928530307518	-1.5502393686797211	-3.6577748852350185e-05
F	-4.935325359692483	2.8866659313202785	4.412251147649817e-06
F	-7.262667319692483	1.5525653013202787	-1.2677488523501832e-06
F	-7.3414502796924825	-1.124529078679721	-4.137748852350184e-06
F	-5.096721299692483	-2.593392988679722	8.022511476498168e-07
F	-2.5634615396924825	-2.6577235986797216	-1.6677488523501832e-06
F	-0.07972653969248261	-2.7303561086797217	-9.177488523501832e-07
F	2.4040928803075174	-2.8027655286797213	1.5492251147649816e-05
F	4.936912590307517	-2.8862126086797213	2.4622511476498166e-06
F	7.263352400307517	-1.5508239986797212	-3.777748852350183e-06
F	7.340858520307518	1.1263432013202788	5.0422511476498165e-06
F	5.095169110307517	2.5939329513202787	-6.357748852350184e-06
F	2.5625179103075175	2.6569442913202788	5.352251147649817e-06
F	0.0796870603075174	2.7290609213202788	6.212251147649816e-06
F	-2.4031957096924828	2.8019326313202786	-4.477748852350183e-06
C	-1.7671038317443848	-0.659337281056989	3.5000386476036525
C	-1.7252868917443853	0.762425308943011	3.4999666576036526
C	-0.5363424217443853	1.4228175389430109	3.5000449976036525
C	0.7060868582556148	0.707589038943011	3.4999485276036526
C	0.663338898255615	-0.747842281056989	3.5000545276036528
C	-0.6190913617443854	-1.3886477610569892	3.4999474076036527
C	1.9423450682556151	1.337295048943011	3.4999867676036525
C	3.1698054582556154	0.633733038943011	3.5000650276036525
C	3.127321828255615	-0.8187409910569888	3.4999152176036525
C	1.860600958255615	-1.449027271056989	3.5000196876036527
C	4.421579258255615	1.2659658289430111	3.4999476776036524
C	5.634329308255615	0.561774768943011	3.5000151176036525
C	5.592024678255615	-0.8907047210569891	3.4999467576036527
C	4.340160088255614	-1.5229718110569892	3.5000690176036526
C	6.900745698255615	1.192513318943011	3.500028067603653
C	8.098186048255615	0.4918026389430111	3.4999461176036526
C	8.055924408255615	-0.9636423810569891	3.5000409476036527
C	6.8198159782556145	-1.5938329210569893	3.4999892076036527
C	9.380199118255616	1.133388358943011	3.5000449276036525
C	10.528603848255615	0.4047639489430111	3.4999671176036524
C	10.487414578255615	-1.017018131056989	3.5000229076036526
C	9.298816778255615	-1.678112701056989	3.4999632276036525
F	-0.5544371117443851	2.758792598943011	3.5000042176036525
F	-2.881779071744385	1.4246919689430109	3.4999985376036524
F	-2.960562031744385	-1.252402411056989	3.4999956676036525
F	-0.7158330517443854	-2.7212663210569894	3.5000006076036527
F	1.817426708255615	-2.7855969310569892	3.4999981376036526
F	4.301161708255615	-2.8582294410569893	3.4999988876036525
F	6.784981128255615	-2.930638861056989	3.5000152976036527
F	9.317800838255616	-3.014085941056989	3.5000022676036524
F	11.644240648255616	-1.678697331056989	3.4999960276036526
F	11.721746768255615	0.998469868943011	3.5000048476036527
F	9.476057358255614	2.466059618943011	3.4999934476036527
F	6.943406158255615	2.529070958943011	3.5000051576036526
F	4.460575308255614	2.601187588943011	3.5000060176036527
F	1.9776925382556148	2.674059298943011	3.4999953276036524
