72
111a_F TL90.0
C	-6.147992079692482	-0.5314639486797212	3.8842251147649815e-05
C	-6.106175139692483	0.8902986413202787	-3.3147748852350185e-05
C	-4.917230669692483	1.5506908713202787	4.519225114764981e-05
C	-3.6748013896924827	0.8354623713202787	-5.127774885235018e-05
C	-3.7175493496924825	-0.6199689486797213	5.472225114764982e-05
C	-4.999979609692483	-1.2607744286797213	-5.2397748852350186e-05
C	-2.4385431796924824	1.4651683813202787	-1.3037748852350183e-05
C	-1.2110827896924825	0.7616063713202788	6.522225114764983e-05
C	-1.2535664196924825	-0.6908676586797211	-8.458774885235017e-05
C	-2.5202872896924826	-1.321153938679721	1.9882251147649817e-05
C	0.04069101030751737	1.3938391613202787	-5.212774885235018e-05
C	1.2534410603075175	0.6896481013202788	1.5312251147649818e-05
C	1.2111364303075174	-0.7628313886797213	-5.304774885235018e-05
C	-0.04072815969248261	-1.3950984786797214	6.921225114764982e-05
C	2.5198574503075175	1.3203866513202787	2.8262251147649818e-05
C	3.7172978003075174	0.6196759713202787	-5.368774885235018e-05
C	3.6750361603075175	-0.8357690486797213	4.1142251147649816e-05
C	2.4389277303075176	-1.4659595886797214	-1.0597748852350183e-05
C	4.999310870307517	1.2612616913202788	4.5122251147649816e-05
C	6.147715600307517	0.5326372813202788	-3.2687748852350187e-05
C	6.106526330307518	-0.8891447986797212	2.3102251147649816e-05
C	4.917928530307518	-1.5502393686797211	-3.6577748852350185e-05
F	-4.935325359692483	2.8866659313202785	4.412251147649817e-06
F	-7.262667319692483	1.5525653013202787	-1.2677488523501832e-06
F	-7.3414502796924825	-1.124529078679721	-4.137748852350184e-06
F	-5.096721299692483	-2.593392988679722	8.022511476498168e-07
F	-2.5634615396924825	-2.6577235986797216	-1.6677488523501832e-06
F	-0.07972653969248261	-2.7303561086797217	-9.177488523501832e-07
F	2.4040928803075174	-2.8027655286797213	1.5492251147649816e-05
F	4.936912590307517	-2.8862126086797213	2.4622511476498166e-06
F	7.263352400307517	-1.5508239986797212	-3.777748852350183e-06
F	7.340858520307518	1.1263432013202788	5.0422511476498165e-06
F	5.095169110307517	2.5939329513202787	-6.357748852350184e-06
F	2.5625179103075175	2.6569442913202788	5.352251147649817e-06
F	0.0796870603075174	2.7290609213202788	6.212251147649816e-06
F	-2.4031957096924828	2.8019326313202786	-4.477748852350183e-06
C	-6.127260237466383	0.17880935916941695	-6.681608088870034
C	-6.1269411751199065	0.17887206671833927	-5.2592307063712775
C	-4.958270827460557	0.1446813694946575	-4.564430396173994
C	-3.6960374032319696	0.10793454367530365	-5.243104681728123
C	-3.696305768200043	0.10783633183524176	-6.699163624522604
C	-4.958952713804429	0.1447989046424971	-7.377113110401734
C	-2.4791974873636273	0.07237794179469927	-4.57759707884364
C	-1.232265550895269	0.03590294674913887	-5.245046580761587
C	-1.232348593825253	0.036055244494900905	-6.698141780325167
C	-2.4796124784977183	0.07235712095180968	-7.365118199639399
C	7.595415710997846e-06	5.1520505126857966e-05	-4.576560583147758
C	1.232260375704116	-0.03598417997855904	-5.245068063337191
C	1.2323539632003317	-0.03591852258930526	-6.698163497984783
C	-9.038753307148333e-06	-6.93856397587595e-05	-7.366686429929703
C	2.4792034236245937	-0.0723941615402706	-4.577648450222698
C	3.696062393253556	-0.10783107839126203	-5.243123715388596
C	3.69628065974591	-0.10793231976174211	-6.699182163240516
C	2.4796049211239017	-0.07236700430173278	-7.365169719794242
C	4.9582699914844195	-0.14477251354682394	-4.564406493816105
C	6.1269490407937335	-0.17880724825742783	-5.2592142926549466
C	6.127258155198792	-0.17887208476056718	-6.681592843649476
C	4.95895412108607	-0.144710747812039	-7.377085080230055
F	-5.015311391394738	0.14638712413182986	-3.2295520328470597
F	-7.301764187824826	0.21313208716517285	-4.630988370816788
F	-7.3024050365150375	0.21315366412272854	-7.309241656648727
F	-5.0167490246600215	0.14643269875297737	-8.711986925052038
F	-2.483769538615947	0.07250002057599225	-8.702378522385443
F	-3.063039853674559e-05	1.4044678132568262e-06	-8.70251344401372
F	2.4837856628375587	-0.07251513710173633	-8.702422907537644
F	5.016883295614804	-0.146440699366638	-8.711935675637774
F	7.302397495066981	-0.21314634061188592	-7.309238227562091
F	7.301760293364855	-0.2131365650851383	-4.630949406439634
F	5.015182017264498	-0.14638221698895323	-3.229505777570695
F	2.4828487788596325	-0.07247764607251087	-3.240415132947738
F	2.8249151364087422e-05	-7.447204339732071e-06	-3.2407694917742282
F	-2.4828658405737984	0.07247645372672501	-3.24037060689999
