66
61a_F TL90.0
C	-4.940766552859324	-0.698662747710167	-2.2795888375016838e-05
C	-4.917074552859324	0.729347492289833	2.0064111624983162e-05
C	-3.732256792859324	1.395124632289833	-1.0695888375016837e-05
C	-2.485078672859324	0.700055092289833	2.2314111624983162e-05
C	-2.508961082859324	-0.750218767710167	-2.280588837501684e-05
C	-3.778783522859324	-1.403489627710167	1.7054111624983162e-05
C	-1.2691527028593241	1.365288182289833	-3.3588837501683796e-07
C	-0.04744717285932412	0.661148582289833	1.074111624983162e-06
C	-0.07080175285932411	-0.789753907710167	2.484111624983162e-06
C	-1.315269822859324	-1.454522447710167	-5.55888375016838e-07
C	1.191759307140676	1.321398822289833	1.654111624983162e-06
C	2.398939297140676	0.624445612289833	-4.115888375016838e-06
C	2.377099447140676	-0.830307337710167	2.094111624983162e-06
C	1.146398267140676	-1.488554627710167	1.204111624983162e-06
C	3.655285417140676	1.3006704822898332	-2.5888375016837993e-08
C	4.811450527140676	0.573863182289833	9.144111624983163e-06
C	4.808950487140676	-0.871774447710167	-9.095888375016837e-06
C	3.609136787140676	-1.542840107710167	4.254111624983162e-06
S	6.464729987140676	1.1991824422898332	-5.005888375016839e-06
C	7.101690457140676	-0.441888767710167	-2.3158883750168377e-06
C	6.152887537140676	-1.400943357710167	7.1841116249831615e-06
F	-3.723871722859324	2.739700512289833	7.584111624983162e-06
F	-6.087303522859324	1.376514132289833	2.54111624983162e-07
F	-6.131777272859324	-1.3066715377101672	-3.2588837501683795e-07
F	-3.815384672859324	-2.747749967710167	-8.845888375016837e-06
H	-1.338726202859324	-2.538312397710167	7.714111624983162e-06
H	1.128217217140676	-2.574960377710167	9.64111624983162e-07
H	3.588258707140676	-2.628687957710167	-6.158883750168379e-07
H	6.375980627140676	-2.4610817377101672	1.634111624983162e-06
H	8.174072027140674	-0.578564337710167	3.9411162498316204e-07
H	3.669975617140676	2.385826082289833	-2.2358883750168377e-06
H	1.207148257140676	2.4076567122898327	-5.1058883750168386e-06
H	-1.257783702859324	2.4490876722898327	-6.455888375016838e-06
C	-4.946739424464556	-0.045189322736109316	-6.657096775921438
C	-4.909996666579878	-0.044896312668669454	-5.2293627523253186
C	-3.7191928242929717	-0.03398020901478592	-4.574443388296484
C	-2.478471704537243	-0.02267157562167453	-5.280883865148624
C	-2.515608371834427	-0.022965926388261698	-6.730878838188946
C	-3.7912953982850057	-0.03466706218218	-7.372515449682029
C	-1.2565671500287199	-0.011479285356595807	-4.626792876543551
C	-0.0413996832824064	-0.0003726409726553395	-5.342070199359397
C	-0.07801388518449223	-0.0007087477373715486	-6.7926986008283885
C	-1.32845414366294	-0.012136196698350317	-7.446064166510492
C	1.2037381040157582	0.011008797291673164	-4.693174650754191
C	2.404446864051014	0.02199045245516337	-5.40113311143071
C	2.3693121153656302	0.02166306942576269	-6.855625657604617
C	1.1326972220240243	0.010359850411318988	-7.50259608355326
C	3.666868903207321	0.033526378886574476	-4.736420267026375
C	4.816294308899132	0.04402430347910126	-5.473765263163296
C	4.800580846977519	0.04389890478791678	-6.919319647887137
C	3.594733820194275	0.03286269952920567	-7.579390238876194
S	6.475151067468465	0.05920234850569863	-4.863584116713261
C	7.097058570017609	0.0648846216479792	-6.510408978890702
C	6.139569029697085	0.05612254497380284	-7.460750861520312
F	-3.6985185516082035	-0.03380950270237714	-3.230000324377767
F	-6.074212788610404	-0.055518801294098016	-4.571526536776043
F	-6.14320776894042	-0.05614891623067392	-7.254193595838195
F	-3.84018057899144	-0.03508802892992036	-8.716385074475799
H	-1.3618145803769182	-0.012449420523455984	-8.529594434064283
H	1.1045876877350331	0.010103136342340266	-8.588790261585975
H	3.563932538262573	0.03258600992632465	-8.665001887704655
H	6.352953517698154	0.05807867944598479	-8.52288416078365
H	8.168101318208377	0.0746724971808505	-6.6568810655091175
H	3.6914764301087084	0.03375353060713157	-3.6514442782532694
H	1.2290543561311933	0.011246977781188633	-3.6071028050349803
H	-1.2352929765341965	-0.011278694228468326	-3.543142583308672
