66
61a_F cofacial 5.0A
C	-4.940766552859324	-0.698662747710167	-2.2795888375016838e-05
C	-4.917074552859324	0.729347492289833	2.0064111624983162e-05
C	-3.732256792859324	1.395124632289833	-1.0695888375016837e-05
C	-2.485078672859324	0.700055092289833	2.2314111624983162e-05
C	-2.508961082859324	-0.750218767710167	-2.280588837501684e-05
C	-3.778783522859324	-1.403489627710167	1.7054111624983162e-05
C	-1.2691527028593241	1.365288182289833	-3.3588837501683796e-07
C	-0.04744717285932412	0.661148582289833	1.074111624983162e-06
C	-0.07080175285932411	-0.789753907710167	2.484111624983162e-06
C	-1.315269822859324	-1.454522447710167	-5.55888375016838e-07
C	1.191759307140676	1.321398822289833	1.654111624983162e-06
C	2.398939297140676	0.624445612289833	-4.115888375016838e-06
C	2.377099447140676	-0.830307337710167	2.094111624983162e-06
C	1.146398267140676	-1.488554627710167	1.204111624983162e-06
C	3.655285417140676	1.3006704822898332	-2.5888375016837993e-08
C	4.811450527140676	0.573863182289833	9.144111624983163e-06
C	4.808950487140676	-0.871774447710167	-9.095888375016837e-06
C	3.609136787140676	-1.542840107710167	4.254111624983162e-06
S	6.464729987140676	1.1991824422898332	-5.005888375016839e-06
C	7.101690457140676	-0.441888767710167	-2.3158883750168377e-06
C	6.152887537140676	-1.400943357710167	7.1841116249831615e-06
F	-3.723871722859324	2.739700512289833	7.584111624983162e-06
F	-6.087303522859324	1.376514132289833	2.54111624983162e-07
F	-6.131777272859324	-1.3066715377101672	-3.2588837501683795e-07
F	-3.815384672859324	-2.747749967710167	-8.845888375016837e-06
H	-1.338726202859324	-2.538312397710167	7.714111624983162e-06
H	1.128217217140676	-2.574960377710167	9.64111624983162e-07
H	3.588258707140676	-2.628687957710167	-6.158883750168379e-07
H	6.375980627140676	-2.4610817377101672	1.634111624983162e-06
H	8.174072027140674	-0.578564337710167	3.9411162498316204e-07
H	3.669975617140676	2.385826082289833	-2.2358883750168377e-06
H	1.207148257140676	2.4076567122898327	-5.1058883750168386e-06
H	-1.257783702859324	2.4490876722898327	-6.455888375016838e-06
C	-4.940766939008866	-0.6986684767781013	4.999977204108328
C	-4.917074939008867	0.7293417632218987	5.000020064108328
C	-3.732257179008866	1.3951189032218987	4.999989304108328
C	-2.485079059008866	0.7000493632218987	5.000022314108328
C	-2.508961469008866	-0.7502244967781013	4.999977194108328
C	-3.778783909008866	-1.4034953567781012	5.000017054108328
C	-1.2691530890088665	1.3652824532218988	4.999999664108328
C	-0.04744755900886641	0.6611428532218987	5.0000010741083285
C	-0.0708021390088664	-0.7897596367781012	5.000002484108328
C	-1.3152702090088664	-1.4545281767781013	4.999999444108328
C	1.1917589209911337	1.3213930932218987	5.000001654108328
C	2.398938910991134	0.6244398832218987	4.999995884108328
C	2.3770990609911338	-0.8303130667781012	5.000002094108328
C	1.1463978809911337	-1.4885603567781014	5.000001204108328
C	3.6552850309911338	1.300664753221899	4.999999974108328
C	4.811450140991133	0.5738574532218987	5.000009144108328
C	4.808950100991133	-0.8717801767781013	4.999990904108328
C	3.609136400991134	-1.5428458367781013	5.000004254108328
S	6.4647296009911335	1.199176713221899	4.999994994108328
C	7.1016900709911335	-0.4418944967781013	4.999997684108328
C	6.152887150991133	-1.4009490867781014	5.000007184108328
F	-3.723872109008866	2.7396947832218985	5.000007584108328
F	-6.087303909008867	1.3765084032218988	5.000000254108328
F	-6.131777659008867	-1.3066772667781015	4.999999674108328
F	-3.8153850590088663	-2.747755696778101	4.999991154108328
H	-1.3387265890088664	-2.538318126778101	5.000007714108328
H	1.1282168309911336	-2.5749661067781013	5.000000964108328
H	3.588258320991134	-2.6286936867781012	4.999999384108328
H	6.375980240991133	-2.4610874667781015	5.000001634108328
H	8.174071640991132	-0.5785700667781013	5.000000394108328
H	3.6699752309911338	2.3858203532218987	4.999997764108328
H	1.2071478709911336	2.4076509832218984	4.999994894108328
H	-1.2577840890088663	2.4490819432218984	4.999993544108328
