66
61a_F TL45.0anti
C	-4.940766552859324	-0.698662747710167	-2.2795888375016838e-05
C	-4.917074552859324	0.729347492289833	2.0064111624983162e-05
C	-3.732256792859324	1.395124632289833	-1.0695888375016837e-05
C	-2.485078672859324	0.700055092289833	2.2314111624983162e-05
C	-2.508961082859324	-0.750218767710167	-2.280588837501684e-05
C	-3.778783522859324	-1.403489627710167	1.7054111624983162e-05
C	-1.2691527028593241	1.365288182289833	-3.3588837501683796e-07
C	-0.04744717285932412	0.661148582289833	1.074111624983162e-06
C	-0.07080175285932411	-0.789753907710167	2.484111624983162e-06
C	-1.315269822859324	-1.454522447710167	-5.55888375016838e-07
C	1.191759307140676	1.321398822289833	1.654111624983162e-06
C	2.398939297140676	0.624445612289833	-4.115888375016838e-06
C	2.377099447140676	-0.830307337710167	2.094111624983162e-06
C	1.146398267140676	-1.488554627710167	1.204111624983162e-06
C	3.655285417140676	1.3006704822898332	-2.5888375016837993e-08
C	4.811450527140676	0.573863182289833	9.144111624983163e-06
C	4.808950487140676	-0.871774447710167	-9.095888375016837e-06
C	3.609136787140676	-1.542840107710167	4.254111624983162e-06
S	6.464729987140676	1.1991824422898332	-5.005888375016839e-06
C	7.101690457140676	-0.441888767710167	-2.3158883750168377e-06
C	6.152887537140676	-1.400943357710167	7.1841116249831615e-06
F	-3.723871722859324	2.739700512289833	7.584111624983162e-06
F	-6.087303522859324	1.376514132289833	2.54111624983162e-07
F	-6.131777272859324	-1.3066715377101672	-3.2588837501683795e-07
F	-3.815384672859324	-2.747749967710167	-8.845888375016837e-06
H	-1.338726202859324	-2.538312397710167	7.714111624983162e-06
H	1.128217217140676	-2.574960377710167	9.64111624983162e-07
H	3.588258707140676	-2.628687957710167	-6.158883750168379e-07
H	6.375980627140676	-2.4610817377101672	1.634111624983162e-06
H	8.174072027140674	-0.578564337710167	3.9411162498316204e-07
H	3.669975617140676	2.385826082289833	-2.2358883750168377e-06
H	1.207148257140676	2.4076567122898327	-5.1058883750168386e-06
H	-1.257783702859324	2.4490876722898327	-6.455888375016838e-06
C	-4.942516527752318	-0.5072629741053503	4.258496443286651
C	-4.9150019388656565	0.50256081927332	5.268087158364077
C	-3.728431036605595	0.9765463861797072	5.731163287934956
C	-2.483143977958937	0.48835659577168244	5.231657732769921
C	-2.5109085881916102	-0.5372094108878115	4.206324551337833
C	-3.782448551144964	-1.0025854052630259	3.752647183913165
C	-1.2654670310214509	0.9620349964177172	5.694153845967459
C	-0.045676424495070436	0.46738563154327384	5.188377353451205
C	-0.07291459978928998	-0.5586563862334724	4.162629172141373
C	-1.3191318706573643	-1.032064537146658	3.700627845875327
C	1.1952672734025978	0.9375864043976405	5.647216161040104
C	2.4005518875001073	0.44798494953082046	5.146609809071705
C	2.374818128188925	-0.5807791875867085	4.1181326588963465
C	1.1423848821953426	-1.049540622316017	3.6606548990797965
C	3.6586775939396525	0.9295252869154195	5.6166356150971
C	4.81286875137291	0.41866593121418905	5.095260410667417
C	4.8064985731495415	-0.6035834136746331	4.0730862055983925
C	3.604917827571198	-1.0813364952689881	3.6063552983299325
S	6.467781688012661	0.865284887764983	5.526713571250278
C	7.100333315722743	-0.29346448501452144	4.362234423302514
C	6.1489862143445935	-0.9741888113034486	3.6902479859477673
F	-3.7164465221067147	1.9273475362658998	6.681841020512005
F	-6.083469884983696	0.957073646807123	5.733233641797527
F	-6.135125641789248	-0.940409453406195	3.8363011650534413
F	-3.82264765966879	-1.9532335793094397	2.80236954690114
H	-1.345489011025308	-1.7985149275629737	2.9344620950521776
H	1.1212958850307633	-1.8178205863244064	2.8925994614230586
H	3.5811333300228627	-1.8492258974718763	2.838708497217149
H	6.369235738152768	-1.7232446033821318	2.9392023953201245
H	8.172322769119187	-0.387242988529749	4.258664894950477
H	3.67627246395028	1.696913617423944	6.383827930583205
H	1.213563797818511	1.7057592865099946	6.415180147042409
H	-1.251196935416069	1.7284582523185164	6.460405988482274
