66
61a_F TL45.0
C	-4.940766552859324	-0.698662747710167	-2.2795888375016838e-05
C	-4.917074552859324	0.729347492289833	2.0064111624983162e-05
C	-3.732256792859324	1.395124632289833	-1.0695888375016837e-05
C	-2.485078672859324	0.700055092289833	2.2314111624983162e-05
C	-2.508961082859324	-0.750218767710167	-2.280588837501684e-05
C	-3.778783522859324	-1.403489627710167	1.7054111624983162e-05
C	-1.2691527028593241	1.365288182289833	-3.3588837501683796e-07
C	-0.04744717285932412	0.661148582289833	1.074111624983162e-06
C	-0.07080175285932411	-0.789753907710167	2.484111624983162e-06
C	-1.315269822859324	-1.454522447710167	-5.55888375016838e-07
C	1.191759307140676	1.321398822289833	1.654111624983162e-06
C	2.398939297140676	0.624445612289833	-4.115888375016838e-06
C	2.377099447140676	-0.830307337710167	2.094111624983162e-06
C	1.146398267140676	-1.488554627710167	1.204111624983162e-06
C	3.655285417140676	1.3006704822898332	-2.5888375016837993e-08
C	4.811450527140676	0.573863182289833	9.144111624983163e-06
C	4.808950487140676	-0.871774447710167	-9.095888375016837e-06
C	3.609136787140676	-1.542840107710167	4.254111624983162e-06
S	6.464729987140676	1.1991824422898332	-5.005888375016839e-06
C	7.101690457140676	-0.441888767710167	-2.3158883750168377e-06
C	6.152887537140676	-1.400943357710167	7.1841116249831615e-06
F	-3.723871722859324	2.739700512289833	7.584111624983162e-06
F	-6.087303522859324	1.376514132289833	2.54111624983162e-07
F	-6.131777272859324	-1.3066715377101672	-3.2588837501683795e-07
F	-3.815384672859324	-2.747749967710167	-8.845888375016837e-06
H	-1.338726202859324	-2.538312397710167	7.714111624983162e-06
H	1.128217217140676	-2.574960377710167	9.64111624983162e-07
H	3.588258707140676	-2.628687957710167	-6.158883750168379e-07
H	6.375980627140676	-2.4610817377101672	1.634111624983162e-06
H	8.174072027140674	-0.578564337710167	3.9411162498316204e-07
H	3.669975617140676	2.385826082289833	-2.2358883750168377e-06
H	1.207148257140676	2.4076567122898327	-5.1058883750168386e-06
H	-1.257783702859324	2.4490876722898327	-6.455888375016838e-06
C	-4.9425157952875205	-0.5072521069667774	-5.225715209990023
C	-4.915001206400859	0.5025716864118929	-4.216124494912597
C	-3.7284303041407973	0.9765572533182801	-3.753048365341717
C	-2.4831432454941393	0.48836746291025535	-4.252553920506752
C	-2.5109078557268125	-0.5371985437492386	-5.277887101938841
C	-3.782447818680166	-1.0025745381244529	-5.731564469363509
C	-1.2654662985566532	0.9620458635562901	-3.790057807309215
C	-0.04567569203027267	0.46739649868184674	-4.295834299825469
C	-0.0729138673244922	-0.5586455190948995	-5.321582481135301
C	-1.3191311381925666	-1.032053670008085	-5.783583807401347
C	1.1952680058673955	0.9375972715362134	-3.83699549223657
C	2.400552619964905	0.44799581666939337	-4.337601844204968
C	2.374818860653723	-0.5807683204481356	-5.366078994380327
C	1.1423856146601403	-1.049529755177444	-5.823556754196877
C	3.6586783264044502	0.9295361540539924	-3.867576038179574
C	4.812869483837707	0.41867679835276195	-4.388951242609257
C	4.806499305614339	-0.6035725465360602	-5.411125447678281
C	3.604918560035996	-1.081325628130415	-5.877856354946742
S	6.467782420477458	0.8652957549035559	-3.9574980820263956
C	7.10033404818754	-0.29345361787594854	-5.12197722997416
C	6.148986946809391	-0.9741779441648757	-5.7939636673289066
F	-3.716445789641917	1.9273584034044728	-2.802370632764669
F	-6.083469152518899	0.9570845139456959	-3.750978011479147
F	-6.135124909324451	-0.9403985862676221	-5.647910488223233
F	-3.8226469272039925	-1.9532227121708667	-6.681842106375534
H	-1.3454882785605102	-1.7985040604244007	-6.549749558224496
H	1.121296617495561	-1.8178097191858333	-6.591612191853615
H	3.5811340624876604	-1.8492150303333033	-6.645503156059525
H	6.369236470617565	-1.7232337362435588	-6.545009257956549
H	8.172323501583985	-0.3872321213911761	-5.225546758326197
H	3.6762731964150777	1.696924484562517	-3.100383722693468
H	1.2135645302833087	1.7057701536485677	-3.069031506234265
H	-1.2511962029512713	1.7284691194570894	-3.0238056647943994
