56
105c PD long+short
N	-0.025847914775479763	2.3963117826408595	-1.3782572492170021e-05
C	1.0847298952245201	1.5841294526408596	3.297427507829978e-06
C	0.7185202152245203	0.24614478264085943	2.725742750782998e-05
C	-0.7239823047754799	0.23084298264085942	-2.725724921700223e-07
C	-1.1188490247754799	1.5606316926408594	-1.0952572492170021e-05
S	2.7996803452245205	1.9008569026408595	-1.6825724921700223e-06
C	3.0811821852245203	0.14190996264085942	1.9997427507829977e-05
C	1.8785980352245202	-0.6138909873591405	-1.9022572492170022e-05
S	-2.84030426477548	1.8403513926408595	-5.322572492170023e-06
C	-3.08378684477548	0.0756554126408594	1.2987427507829978e-05
C	-1.86514845477548	-0.6538099173591405	-1.3925724921700224e-06
C	-4.324003564775479	-0.5542745573591406	-1.5225724921700224e-06
C	-4.36560987477548	-1.9446064073591405	3.387427507829978e-06
C	-3.17868309477548	-2.6868180073591406	-1.5102572492170022e-05
C	-1.9426123647754796	-2.0542502273591405	1.572742750782998e-05
C	4.33490295522452	-0.4606604873591406	-1.3082572492170021e-05
C	4.407023895224521	-1.8497609773591406	5.057427507829978e-06
C	3.2366153452245205	-2.6176191073591406	-1.1652572492170021e-05
C	1.9868247252245204	-2.0124001973591406	2.157742750782998e-05
H	-0.03651669477547981	3.4017091026408597	2.0074275078299775e-06
H	-5.241295374775479	0.025302962640859405	-6.232572492170022e-06
H	-5.32448985477548	-2.4519855473591403	3.6174275078299778e-06
H	-3.2231155047754796	-3.7711523673591403	-1.0552572492170022e-05
H	-1.0343237747754799	-2.6457055373591407	9.817427507829978e-06
H	1.0918035752245203	-2.6237838673591405	-5.732572492170022e-06
H	3.3052662352245203	-3.700680777359141	-6.032572492170023e-06
H	5.3766633752245205	-2.3362891673591406	-1.325724921700223e-07
H	5.23919351522452	0.1390321326408594	-4.842572492170022e-06
N	3.225532940470074	0.012791269423233364	3.4999882642372757
C	4.336110750470075	-0.7993910605767666	3.500005344237276
C	3.9699010704700743	-2.1373757305767667	3.500029304237276
C	2.5273985504700742	-2.1526775305767667	3.5000017742372758
C	2.132531830470074	-0.8228888205767667	3.499991094237276
S	6.051061200470075	-0.48266361057676666	3.500000364237276
C	6.332563040470075	-2.2416105505767665	3.500022044237276
C	5.129978890470075	-2.9974115005767668	3.499983024237276
S	0.41107659047007417	-0.5431691205767667	3.499996724237276
C	0.16759401047007394	-2.3078651005767665	3.500015034237276
C	1.3862324004700741	-3.0373304305767665	3.500000654237276
C	-1.072622709529925	-2.9377950705767666	3.500000524237276
C	-1.1142290195299256	-4.328126920576767	3.5000054342372757
C	0.07269776047007426	-5.070338520576767	3.4999869442372757
C	1.3087684904700745	-4.4377707405767675	3.500017774237276
C	7.586283810470075	-2.8441810005767665	3.499988964237276
C	7.658404750470075	-4.2332814905767675	3.500007104237276
C	6.487996200470075	-5.001139620576767	3.4999903942372756
C	5.2382055804700745	-4.395920710576767	3.5000236242372758
H	3.2148641604700745	1.0181885894232334	3.5000040542372757
H	-1.989914519529925	-2.3582175505767666	3.499995814237276
H	-2.0731089995299263	-4.835506060576766	3.5000056642372757
H	0.028265350470074505	-6.154672880576767	3.499991494237276
H	2.217057080470074	-5.029226050576767	3.5000118642372757
H	4.343184430470075	-5.007304380576767	3.499996314237276
H	6.556647090470075	-6.084201290576767	3.4999960142372757
H	8.628044230470076	-4.719809680576767	3.500001914237276
H	8.490574370470075	-2.2444883805767666	3.499997204237276
