56
105c TS90.0
N	-0.025847914775479763	2.3963117826408595	-1.3782572492170021e-05
C	1.0847298952245201	1.5841294526408596	3.297427507829978e-06
C	0.7185202152245203	0.24614478264085943	2.725742750782998e-05
C	-0.7239823047754799	0.23084298264085942	-2.725724921700223e-07
C	-1.1188490247754799	1.5606316926408594	-1.0952572492170021e-05
S	2.7996803452245205	1.9008569026408595	-1.6825724921700223e-06
C	3.0811821852245203	0.14190996264085942	1.9997427507829977e-05
C	1.8785980352245202	-0.6138909873591405	-1.9022572492170022e-05
S	-2.84030426477548	1.8403513926408595	-5.322572492170023e-06
C	-3.08378684477548	0.0756554126408594	1.2987427507829978e-05
C	-1.86514845477548	-0.6538099173591405	-1.3925724921700224e-06
C	-4.324003564775479	-0.5542745573591406	-1.5225724921700224e-06
C	-4.36560987477548	-1.9446064073591405	3.387427507829978e-06
C	-3.17868309477548	-2.6868180073591406	-1.5102572492170022e-05
C	-1.9426123647754796	-2.0542502273591405	1.572742750782998e-05
C	4.33490295522452	-0.4606604873591406	-1.3082572492170021e-05
C	4.407023895224521	-1.8497609773591406	5.057427507829978e-06
C	3.2366153452245205	-2.6176191073591406	-1.1652572492170021e-05
C	1.9868247252245204	-2.0124001973591406	2.157742750782998e-05
H	-0.03651669477547981	3.4017091026408597	2.0074275078299775e-06
H	-5.241295374775479	0.025302962640859405	-6.232572492170022e-06
H	-5.32448985477548	-2.4519855473591403	3.6174275078299778e-06
H	-3.2231155047754796	-3.7711523673591403	-1.0552572492170022e-05
H	-1.0343237747754799	-2.6457055373591407	9.817427507829978e-06
H	1.0918035752245203	-2.6237838673591405	-5.732572492170022e-06
H	3.3052662352245203	-3.700680777359141	-6.032572492170023e-06
H	5.3766633752245205	-2.3362891673591406	-1.325724921700223e-07
H	5.23919351522452	0.1390321326408594	-4.842572492170022e-06
N	-0.025652672655666477	2.396322723388238	8.221148833212661
C	-0.016843792863585925	1.572341322696867	9.322965634896066
C	-0.0025797640092377044	0.23843122404953884	8.942449020722242
C	-0.0025538020208872125	0.23857775906938306	7.499865351086073
C	-0.01683062348993181	1.5724422847896538	7.119261437135017
S	-0.02003430585138796	1.8706688468564656	11.041209457093366
C	-0.00118514564754811	0.1089091051073927	11.303859310778119
C	0.006810666245723194	-0.6339274943753997	10.09325055117174
S	-0.02002953345052328	1.8705631461168177	5.400900307180123
C	-0.0011756446078180116	0.1086765814196593	5.138534278620735
C	0.006791177726417922	-0.633754080004248	6.349291246876602
C	0.00544324770697777	-0.5079007688799747	3.8916430078018616
C	0.020324201638176855	-1.8976276851303062	3.8351505867191307
C	0.028428010727237666	-2.6524635433555614	5.014061268668021
C	0.02176407252622926	-2.033204465234946	6.256835034443679
C	0.0054453387133661475	-0.5070166918368039	12.55105551297434
C	0.020312919551228364	-1.8967303199014514	12.608297007060436
C	0.028419247142132637	-2.6519674910318063	11.429732887126594
C	0.02176069821359562	-2.033435623423921	10.186494970858966
H	-0.03643762208517757	3.4017187992695392	8.221247054791576
H	-0.0008646041451651909	0.08143266617997477	2.9806102533248
H	0.02564808787692493	-2.3946809671088727	2.8708922712965217
H	0.04003172739434715	-3.736197800927812	4.958019711948451
H	0.028208723809680387	-2.6343178079192584	7.158737890744201
H	0.028233349393845295	-2.6351650103603763	9.284978081766141
H	0.04002123350955496	-3.735640109513785	11.486781775085163
H	0.025640104474396026	-2.3935855290966876	13.572670857319055
H	-0.0008819677142596568	0.08292393364463352	13.461716085885794
