56
105c TL45.0anti
N	-0.025847914775479763	2.3963117826408595	-1.3782572492170021e-05
C	1.0847298952245201	1.5841294526408596	3.297427507829978e-06
C	0.7185202152245203	0.24614478264085943	2.725742750782998e-05
C	-0.7239823047754799	0.23084298264085942	-2.725724921700223e-07
C	-1.1188490247754799	1.5606316926408594	-1.0952572492170021e-05
S	2.7996803452245205	1.9008569026408595	-1.6825724921700223e-06
C	3.0811821852245203	0.14190996264085942	1.9997427507829977e-05
C	1.8785980352245202	-0.6138909873591405	-1.9022572492170022e-05
S	-2.84030426477548	1.8403513926408595	-5.322572492170023e-06
C	-3.08378684477548	0.0756554126408594	1.2987427507829978e-05
C	-1.86514845477548	-0.6538099173591405	-1.3925724921700224e-06
C	-4.324003564775479	-0.5542745573591406	-1.5225724921700224e-06
C	-4.36560987477548	-1.9446064073591405	3.387427507829978e-06
C	-3.17868309477548	-2.6868180073591406	-1.5102572492170022e-05
C	-1.9426123647754796	-2.0542502273591405	1.572742750782998e-05
C	4.33490295522452	-0.4606604873591406	-1.3082572492170021e-05
C	4.407023895224521	-1.8497609773591406	5.057427507829978e-06
C	3.2366153452245205	-2.6176191073591406	-1.1652572492170021e-05
C	1.9868247252245204	-2.0124001973591406	2.157742750782998e-05
H	-0.03651669477547981	3.4017091026408597	2.0074275078299775e-06
H	-5.241295374775479	0.025302962640859405	-6.232572492170022e-06
H	-5.32448985477548	-2.4519855473591403	3.6174275078299778e-06
H	-3.2231155047754796	-3.7711523673591403	-1.0552572492170022e-05
H	-1.0343237747754799	-2.6457055373591407	9.817427507829978e-06
H	1.0918035752245203	-2.6237838673591405	-5.732572492170022e-06
H	3.3052662352245203	-3.700680777359141	-6.032572492170023e-06
H	5.3766633752245205	-2.3362891673591406	-1.325724921700223e-07
H	5.23919351522452	0.1390321326408594	-4.842572492170022e-06
N	-0.018329729815455074	1.6944630820639484	6.884400808338013
C	1.0896633030855973	1.1236074012223647	6.301735861551293
C	0.719269208598657	0.1762988663416128	5.358482310290512
C	-0.723233058125113	0.16097342020498057	5.358567427799276
C	-1.1139154040149735	1.1000897644258247	6.301798860984344
S	2.805549592274002	1.3529606108241319	6.512692424341176
C	3.0815247957964718	0.1100058095842031	5.266883982708149
C	1.8766100054010453	-0.42819585813692346	4.741562149806422
S	-2.834435365325453	1.2924875544526235	6.512619654665218
C	-3.0834450042045125	0.04382315066897652	5.266719548157549
C	-1.8671357987273691	-0.4681788248019442	4.741700417795596
C	-4.325596091321817	-0.40550542931071815	4.830699154289297
C	-4.37156206382511	-1.3887991846813124	3.8479610110378166
C	-3.1870034157771636	-1.9099111193270906	3.314166667210379
C	-1.9489897816898714	-1.4587417805609335	3.7520951047188786
C	4.333313096244889	-0.3121404152539529	4.8313090372025105
C	4.401074515825369	-1.2942160766439457	3.848589653575816
C	3.2282965933398207	-1.840858719435018	3.3145147078871995
C	1.9804466195053076	-1.4168274407925767	3.7519326333313527
H	-0.025844370608656766	2.4053754930427766	7.595375258138576
H	-5.241039142575694	0.001463491631102631	5.2474421010839025
H	-5.332001341515641	-1.7505951377554438	3.4964720496742108
H	-3.2348355641674544	-2.67683030430455	2.547810162279679
H	-1.0425869858409658	-1.8741306958227766	3.3270144450304047
H	1.0835375837244667	-1.8519494312052187	3.326402509098238
H	3.293547946221647	-2.606524006135931	2.548202463798104
H	5.36915527428626	-1.6352148716945785	3.497235319977831
H	5.239454414533313	0.11475691881697218	5.248489133694575
