56
105c TL90.0
N	-0.025847914775479763	2.3963117826408595	-1.3782572492170021e-05
C	1.0847298952245201	1.5841294526408596	3.297427507829978e-06
C	0.7185202152245203	0.24614478264085943	2.725742750782998e-05
C	-0.7239823047754799	0.23084298264085942	-2.725724921700223e-07
C	-1.1188490247754799	1.5606316926408594	-1.0952572492170021e-05
S	2.7996803452245205	1.9008569026408595	-1.6825724921700223e-06
C	3.0811821852245203	0.14190996264085942	1.9997427507829977e-05
C	1.8785980352245202	-0.6138909873591405	-1.9022572492170022e-05
S	-2.84030426477548	1.8403513926408595	-5.322572492170023e-06
C	-3.08378684477548	0.0756554126408594	1.2987427507829978e-05
C	-1.86514845477548	-0.6538099173591405	-1.3925724921700224e-06
C	-4.324003564775479	-0.5542745573591406	-1.5225724921700224e-06
C	-4.36560987477548	-1.9446064073591405	3.387427507829978e-06
C	-3.17868309477548	-2.6868180073591406	-1.5102572492170022e-05
C	-1.9426123647754796	-2.0542502273591405	1.572742750782998e-05
C	4.33490295522452	-0.4606604873591406	-1.3082572492170021e-05
C	4.407023895224521	-1.8497609773591406	5.057427507829978e-06
C	3.2366153452245205	-2.6176191073591406	-1.1652572492170021e-05
C	1.9868247252245204	-2.0124001973591406	2.157742750782998e-05
H	-0.03651669477547981	3.4017091026408597	2.0074275078299775e-06
H	-5.241295374775479	0.025302962640859405	-6.232572492170022e-06
H	-5.32448985477548	-2.4519855473591403	3.6174275078299778e-06
H	-3.2231155047754796	-3.7711523673591403	-1.0552572492170022e-05
H	-1.0343237747754799	-2.6457055373591407	9.817427507829978e-06
H	1.0918035752245203	-2.6237838673591405	-5.732572492170022e-06
H	3.3052662352245203	-3.700680777359141	-6.032572492170023e-06
H	5.3766633752245205	-2.3362891673591406	-1.325724921700223e-07
H	5.23919351522452	0.1390321326408594	-4.842572492170022e-06
N	-0.00018346057308308544	5.067103971817027e-06	-3.8754539193764868
C	1.1015693077319384	0.011787879779597063	-4.699483780715276
C	0.7210731063672055	0.0076887621258204105	-6.033469667235918
C	-0.7214281282001312	-0.007733053603577253	-6.033321617212501
C	-1.102008663827801	-0.011798432499872334	-4.699380213508098
S	2.8197149107844437	0.030194388959385022	-4.401141342073599
C	3.082347734064596	0.03298553421770909	-6.1630022428750255
C	1.8718070552799453	0.020059532281432865	-6.905880361314534
S	-2.820270816111672	-0.030206839972042602	-4.401240044315179
C	-3.082623802557646	-0.03303498044060575	-6.163227155803581
C	-1.8719373502949077	-0.02005401419177212	-6.905702072742393
C	-4.3294444916533905	-0.04637405669413387	-6.779838474358319
C	-4.385935355882651	-0.04698399036175493	-8.169644989100533
C	-3.2070934231041077	-0.03433997219285127	-8.92452581871876
C	-1.9643898247915672	-0.021061311371641935	-8.305232438554551
C	4.3294712882495725	0.04637544691906963	-6.778965284194684
C	4.386707958446046	0.046970316928813795	-8.168758510307214
C	3.208210305071847	0.03436518804903034	-8.924037712799148
C	1.9650448146753579	0.021017516638756423	-8.305468454655012
H	-8.381999719757036e-05	-9.656640023204113e-06	-2.8699999999778094
H	-5.240424314441478	-0.056126040793348125	-6.190470144971913
H	-5.350138990982768	-0.05731094764396178	-8.666725577903804
H	-3.2631330705619432	-0.034944713258432306	-10.008322125944783
H	-1.0625395050414939	-0.011396484647737438	-8.9063814536726
H	1.0635785821328265	0.011390025436387589	-8.907231526498533
H	3.2652546282837425	0.03497051871940768	-10.007772507163821
H	5.3510258274561835	0.0573034579532295	-8.665643481473179
H	5.240080461284014	0.05611993111612929	-6.188991865752177
