68
116a_F PD short
C	-0.6728601091342797	0.005653456076151309	4.3609224749734645e-06
C	0.6728338408657202	-0.008029713923848658	-3.2990775250265354e-06
S	1.6371065508657203	1.4911457360761513	1.4909224749734647e-06
C	3.20930242086572	0.6849226960761514	9.150922474973464e-06
C	3.19508102086572	-0.7511400939238487	-9.679077525026536e-06
S	1.6071341308657203	-1.5260474639238484	-5.089077525026535e-06
S	-1.6064264591342798	1.5241329460761515	5.009224749734645e-07
C	-3.1946827291342794	0.7500613360761513	-1.4907752502653543e-07
C	-3.20972348913428	-0.6859928639238487	1.3709224749734646e-06
S	-1.6378547691342797	-1.4930464939238486	3.3809224749734646e-06
N	4.31218134086572	1.3704949360761514	1.3580922474973463e-05
C	5.47821385086572	0.6580837460761514	-3.509907752502653e-05
C	5.46417464086572	-0.7690521739238486	3.5930922474973466e-05
N	4.28425926086572	-1.4582701439238486	-9.309077525026536e-06
N	-4.28342372913428	1.4578576460761514	-1.2459077525026536e-05
C	-5.46373601913428	0.7693684760761514	3.854092247497347e-05
C	-5.47864491913428	-0.6577587039238487	-3.743907752502653e-05
N	-4.31302552913428	-1.3708906039238484	1.1030922474973464e-05
C	6.71182592086572	1.3451192260761513	2.4580922474973465e-05
C	7.87760853086572	0.6271967560761513	-3.8479077525026534e-05
C	7.86371755086572	-0.7853013439238486	3.810092247497347e-05
C	6.68404687086572	-1.4802147839238486	-3.600907752502653e-05
C	-6.68311795913428	1.4813599260761514	-3.7589077525026534e-05
C	-7.863245859134279	0.7872398860761514	3.9820922474973465e-05
C	-7.87803805913428	-0.6252489139238487	-4.0269077525026536e-05
C	-6.71272955913428	-1.3439562039238488	3.175092247497347e-05
F	9.06615041086572	1.2459728660761513	1.0850922474973464e-05
F	9.03981348086572	-1.4274007839238485	-5.509077525026535e-06
F	-9.03891587913428	1.4301159360761515	-1.5969077525026535e-05
F	-9.06699097913428	-1.2432374339238486	1.7080922474973466e-05
H	-6.67550233913428	2.5641181160761515	2.3709224749734645e-06
H	-6.72797104913428	-2.4266398139238485	-1.5290775250265354e-06
H	6.67721094086572	-2.5629775039238485	-5.907752502653543e-08
H	6.72628826086572	2.4278142660761515	6.709224749734646e-07
C	-0.691138728837903	-1.7917247179527584	3.500004782478837
C	0.654555221162097	-1.8054078879527586	3.4999971224788373
S	1.618827931162097	-0.3062324379527586	3.500001912478837
C	3.191023801162097	-1.1124554779527585	3.500009572478837
C	3.176802401162097	-2.5485182679527587	3.499990742478837
S	1.588855511162097	-3.323425637952758	3.499995332478837
S	-1.6247050788379032	-0.27324522795275846	3.5000009224788373
C	-3.2129613488379025	-1.0473168379527587	3.5000002724788373
C	-3.228002108837903	-2.4833710379527587	3.500001792478837
S	-1.656133388837903	-3.2904246679527582	3.500003802478837
N	4.293902721162096	-0.42688323795275857	3.5000140024788373
C	5.459935231162096	-1.1392944279527586	3.499965322478837
C	5.445896021162096	-2.5664303479527586	3.500036352478837
N	4.265980641162096	-3.2556483179527587	3.499991112478837
N	-4.301702348837904	-0.3395205279527585	3.499987962478837
C	-5.482014638837904	-1.0280096979527584	3.500038962478837
C	-5.496923538837904	-2.4551368779527585	3.499962982478837
N	-4.331304148837904	-3.168268777952758	3.5000114524788373
C	6.693547301162096	-0.4522589479527586	3.500025002478837
C	7.859329911162096	-1.1701814179527585	3.499961942478837
C	7.8454389311620965	-2.5826795179527586	3.500038522478837
C	6.665768251162096	-3.2775929579527587	3.499964412478837
C	-6.701396578837904	-0.3160182479527585	3.499962832478837
C	-7.881524478837903	-1.0101382879527585	3.5000402424788373
C	-7.896316678837904	-2.4226270879527587	3.4999601524788373
C	-6.731008178837904	-3.141334377952759	3.500032172478837
F	9.047871791162098	-0.5514053079527585	3.500011272478837
F	9.021534861162097	-3.224778957952758	3.499994912478837
F	-9.057194498837902	-0.3672622379527584	3.499984452478837
F	-9.085269598837902	-3.0406156079527586	3.500017502478837
H	-6.693780958837904	0.7667399420472416	3.500002792478837
H	-6.746249668837904	-4.224017987952759	3.499998892478837
H	6.658932321162096	-4.360355677952759	3.500000362478837
H	6.708009641162096	0.6304360920472416	3.500001092478837
