68
116a_F PD long
C	-0.6728601091342797	0.005653456076151309	4.3609224749734645e-06
C	0.6728338408657202	-0.008029713923848658	-3.2990775250265354e-06
S	1.6371065508657203	1.4911457360761513	1.4909224749734647e-06
C	3.20930242086572	0.6849226960761514	9.150922474973464e-06
C	3.19508102086572	-0.7511400939238487	-9.679077525026536e-06
S	1.6071341308657203	-1.5260474639238484	-5.089077525026535e-06
S	-1.6064264591342798	1.5241329460761515	5.009224749734645e-07
C	-3.1946827291342794	0.7500613360761513	-1.4907752502653543e-07
C	-3.20972348913428	-0.6859928639238487	1.3709224749734646e-06
S	-1.6378547691342797	-1.4930464939238486	3.3809224749734646e-06
N	4.31218134086572	1.3704949360761514	1.3580922474973463e-05
C	5.47821385086572	0.6580837460761514	-3.509907752502653e-05
C	5.46417464086572	-0.7690521739238486	3.5930922474973466e-05
N	4.28425926086572	-1.4582701439238486	-9.309077525026536e-06
N	-4.28342372913428	1.4578576460761514	-1.2459077525026536e-05
C	-5.46373601913428	0.7693684760761514	3.854092247497347e-05
C	-5.47864491913428	-0.6577587039238487	-3.743907752502653e-05
N	-4.31302552913428	-1.3708906039238484	1.1030922474973464e-05
C	6.71182592086572	1.3451192260761513	2.4580922474973465e-05
C	7.87760853086572	0.6271967560761513	-3.8479077525026534e-05
C	7.86371755086572	-0.7853013439238486	3.810092247497347e-05
C	6.68404687086572	-1.4802147839238486	-3.600907752502653e-05
C	-6.68311795913428	1.4813599260761514	-3.7589077525026534e-05
C	-7.863245859134279	0.7872398860761514	3.9820922474973465e-05
C	-7.87803805913428	-0.6252489139238487	-4.0269077525026536e-05
C	-6.71272955913428	-1.3439562039238488	3.175092247497347e-05
F	9.06615041086572	1.2459728660761513	1.0850922474973464e-05
F	9.03981348086572	-1.4274007839238485	-5.509077525026535e-06
F	-9.03891587913428	1.4301159360761515	-1.5969077525026535e-05
F	-9.06699097913428	-1.2432374339238486	1.7080922474973466e-05
H	-6.67550233913428	2.5641181160761515	2.3709224749734645e-06
H	-6.72797104913428	-2.4266398139238485	-1.5290775250265354e-06
H	6.67721094086572	-2.5629775039238485	-5.907752502653543e-08
H	6.72628826086572	2.4278142660761515	6.709224749734646e-07
C	4.583798805012396	-0.04780388635200799	3.5000043418465108
C	5.9294927550123955	-0.061487056352007956	3.4999966818465107
S	6.893765465012396	1.437688393647992	3.5000014718465104
C	8.465961335012397	0.6314653536479922	3.5000091318465105
C	8.451739935012396	-0.804597436352008	3.499990301846511
S	6.863793045012396	-1.5795048063520076	3.4999948918465105
S	3.650232455012396	1.4706756036479922	3.5000004818465107
C	2.0619761850123965	0.6966039936479921	3.4999998318465106
C	2.046935425012396	-0.739450206352008	3.5000013518465107
S	3.6188041450123962	-1.5465038363520078	3.5000033618465105
N	9.568840255012397	1.317037593647992	3.5000135618465107
C	10.734872765012396	0.6046264036479921	3.499964881846511
C	10.720833555012396	-0.8225095163520079	3.5000359118465107
N	9.540918175012395	-1.5117274863520078	3.499990671846511
N	0.9732351850123958	1.4044003036479922	3.499987521846511
C	-0.207077104987604	0.7159111336479922	3.500038521846511
C	-0.221986004987604	-0.711216046352008	3.499962541846511
N	0.9436333850123958	-1.4243479463520077	3.5000110118465106
C	11.968484835012395	1.291661883647992	3.5000245618465105
C	13.134267445012396	0.5737394136479921	3.4999615018465104
C	13.120376465012397	-0.8387586863520079	3.5000380818465104
C	11.940705785012396	-1.533672126352008	3.4999639718465105
C	-1.426459044987604	1.4279025836479922	3.499962391846511
C	-2.6065869449876033	0.7337825436479921	3.5000398018465106
C	-2.621379144987604	-0.678706256352008	3.4999597118465107
C	-1.456070644987604	-1.397413546352008	3.500031731846511
F	14.322809325012397	1.192515523647992	3.500010831846511
F	14.296472395012396	-1.4808581263520078	3.499994471846511
F	-3.7822569649876034	1.3766585936479923	3.499984011846511
F	-3.810332064987604	-1.2966947763520078	3.5000170618465107
H	-1.4188434249876039	2.510660773647992	3.500002351846511
H	-1.4713121349876042	-2.480097156352008	3.4999984518465106
H	11.933869855012396	-2.616434846352008	3.4999999218465105
H	11.982947175012397	2.374356923647992	3.5000006518465105
