68
116a_F TS90.0
C	-0.6728601091342797	0.005653456076151309	4.3609224749734645e-06
C	0.6728338408657202	-0.008029713923848658	-3.2990775250265354e-06
S	1.6371065508657203	1.4911457360761513	1.4909224749734647e-06
C	3.20930242086572	0.6849226960761514	9.150922474973464e-06
C	3.19508102086572	-0.7511400939238487	-9.679077525026536e-06
S	1.6071341308657203	-1.5260474639238484	-5.089077525026535e-06
S	-1.6064264591342798	1.5241329460761515	5.009224749734645e-07
C	-3.1946827291342794	0.7500613360761513	-1.4907752502653543e-07
C	-3.20972348913428	-0.6859928639238487	1.3709224749734646e-06
S	-1.6378547691342797	-1.4930464939238486	3.3809224749734646e-06
N	4.31218134086572	1.3704949360761514	1.3580922474973463e-05
C	5.47821385086572	0.6580837460761514	-3.509907752502653e-05
C	5.46417464086572	-0.7690521739238486	3.5930922474973466e-05
N	4.28425926086572	-1.4582701439238486	-9.309077525026536e-06
N	-4.28342372913428	1.4578576460761514	-1.2459077525026536e-05
C	-5.46373601913428	0.7693684760761514	3.854092247497347e-05
C	-5.47864491913428	-0.6577587039238487	-3.743907752502653e-05
N	-4.31302552913428	-1.3708906039238484	1.1030922474973464e-05
C	6.71182592086572	1.3451192260761513	2.4580922474973465e-05
C	7.87760853086572	0.6271967560761513	-3.8479077525026534e-05
C	7.86371755086572	-0.7853013439238486	3.810092247497347e-05
C	6.68404687086572	-1.4802147839238486	-3.600907752502653e-05
C	-6.68311795913428	1.4813599260761514	-3.7589077525026534e-05
C	-7.863245859134279	0.7872398860761514	3.9820922474973465e-05
C	-7.87803805913428	-0.6252489139238487	-4.0269077525026536e-05
C	-6.71272955913428	-1.3439562039238488	3.175092247497347e-05
F	9.06615041086572	1.2459728660761513	1.0850922474973464e-05
F	9.03981348086572	-1.4274007839238485	-5.509077525026535e-06
F	-9.03891587913428	1.4301159360761515	-1.5969077525026535e-05
F	-9.06699097913428	-1.2432374339238486	1.7080922474973466e-05
H	-6.67550233913428	2.5641181160761515	2.3709224749734645e-06
H	-6.72797104913428	-2.4266398139238485	-1.5290775250265354e-06
H	6.67721094086572	-2.5629775039238485	-5.907752502653543e-08
H	6.72628826086572	2.4278142660761515	6.709224749734646e-07
C	-1.638129206123162e-05	-0.001186378003155492	11.610978612630154
C	-8.698033437881038e-06	-0.0011841298337383016	12.95674212684892
S	0.015330327135859691	1.507641826830601	13.905719384721408
C	0.007287312925531411	0.7174895683062594	15.486032696125786
C	-0.0072976780613041164	-0.7185695240214691	15.486415809539766
S	-0.015345985733069167	-1.5095442146859592	13.90643130928861
S	0.015331327133521162	1.5076428049291974	10.662018636658747
C	0.00729672547485963	0.7175005885331107	9.081716273296724
C	-0.007308611844125497	-0.7185580396477832	9.081279981724427
S	-0.015354455884109924	-1.5095441864547139	10.661274606578532
N	0.014368051667391862	1.4142059038533454	16.581882785955283
C	0.007293282224164539	0.7137250308225909	17.755099737136632
C	-0.007290773984424282	-0.7134053482101277	17.755574250957075
N	-0.01437574215323122	-1.4145508194349947	16.582728759178625
N	0.014393548910988804	1.4141523998348382	7.9858337656394065
C	0.007219715346956798	0.7137325957995351	6.812583972986335
C	-0.007217339526364498	-0.7133993827555631	6.812188752897609
N	-0.014396625078987124	-1.4146041042850295	7.984999934569519
C	0.014347171665466377	1.4132344150176082	18.98166133675447
C	0.007230715164870482	0.7072401445006458	20.154684446812396
C	-0.007210033355884386	-0.7052523644755353	20.15515832633323
C	-0.014324021087840921	-1.4120905220018547	18.982615440942705
C	0.014409503407862326	1.4132500038361087	5.5860246189115
C	0.007152023775834468	0.7072020556731686	4.413016468827021
C	-0.007132061475378658	-0.7052919117363688	4.412589080374245
C	-0.01439162032237143	-1.4120743686125894	5.585146086031383
F	0.013596210073640742	1.3380388028050738	21.33687233814356
F	-0.013573879336722444	-1.3353263740864951	21.33772315465758
F	0.013623205481570482	1.3380559151811415	3.2308696308859144
F	-0.013596264905098769	-1.3353061564529687	3.2299821610449477
H	0.025380167318583054	2.4959740735471514	5.5826289336231385
H	-0.02536899412729582	-2.4948013439894323	5.580915537216982
H	-0.025370556508273516	-2.4948104208222075	18.986790821981206
H	0.025381768165268687	2.4959643146422152	18.985112659622523
