68
116a_F cofacial 4.0A
C	-0.6728601091342797	0.005653456076151309	4.3609224749734645e-06
C	0.6728338408657202	-0.008029713923848658	-3.2990775250265354e-06
S	1.6371065508657203	1.4911457360761513	1.4909224749734647e-06
C	3.20930242086572	0.6849226960761514	9.150922474973464e-06
C	3.19508102086572	-0.7511400939238487	-9.679077525026536e-06
S	1.6071341308657203	-1.5260474639238484	-5.089077525026535e-06
S	-1.6064264591342798	1.5241329460761515	5.009224749734645e-07
C	-3.1946827291342794	0.7500613360761513	-1.4907752502653543e-07
C	-3.20972348913428	-0.6859928639238487	1.3709224749734646e-06
S	-1.6378547691342797	-1.4930464939238486	3.3809224749734646e-06
N	4.31218134086572	1.3704949360761514	1.3580922474973463e-05
C	5.47821385086572	0.6580837460761514	-3.509907752502653e-05
C	5.46417464086572	-0.7690521739238486	3.5930922474973466e-05
N	4.28425926086572	-1.4582701439238486	-9.309077525026536e-06
N	-4.28342372913428	1.4578576460761514	-1.2459077525026536e-05
C	-5.46373601913428	0.7693684760761514	3.854092247497347e-05
C	-5.47864491913428	-0.6577587039238487	-3.743907752502653e-05
N	-4.31302552913428	-1.3708906039238484	1.1030922474973464e-05
C	6.71182592086572	1.3451192260761513	2.4580922474973465e-05
C	7.87760853086572	0.6271967560761513	-3.8479077525026534e-05
C	7.86371755086572	-0.7853013439238486	3.810092247497347e-05
C	6.68404687086572	-1.4802147839238486	-3.600907752502653e-05
C	-6.68311795913428	1.4813599260761514	-3.7589077525026534e-05
C	-7.863245859134279	0.7872398860761514	3.9820922474973465e-05
C	-7.87803805913428	-0.6252489139238487	-4.0269077525026536e-05
C	-6.71272955913428	-1.3439562039238488	3.175092247497347e-05
F	9.06615041086572	1.2459728660761513	1.0850922474973464e-05
F	9.03981348086572	-1.4274007839238485	-5.509077525026535e-06
F	-9.03891587913428	1.4301159360761515	-1.5969077525026535e-05
F	-9.06699097913428	-1.2432374339238486	1.7080922474973466e-05
H	-6.67550233913428	2.5641181160761515	2.3709224749734645e-06
H	-6.72797104913428	-2.4266398139238485	-1.5290775250265354e-06
H	6.67721094086572	-2.5629775039238485	-5.907752502653543e-08
H	6.72628826086572	2.4278142660761515	6.709224749734646e-07
C	-0.6728600850804822	0.005654393989728935	4.0000043609223646
C	0.6728338649195177	-0.008028776010271032	3.999996700922365
S	1.637106574919518	1.491146673989729	4.000001490922365
C	3.2093024449195178	0.684923633989729	4.000009150922365
C	3.1950810449195175	-0.7511391560102711	3.999990320922365
S	1.607134154919518	-1.5260465260102707	3.9999949109223647
S	-1.6064264350804822	1.5241338839897292	4.000000500922365
C	-3.194682705080482	0.7500622739897289	3.999999850922365
C	-3.2097234650804825	-0.6859919260102711	4.000001370922365
S	-1.6378547450804821	-1.493045556010271	4.000003380922365
N	4.3121813649195175	1.370495873989729	4.0000135809223645
C	5.4782138749195175	0.658084683989729	3.999964900922365
C	5.4641746649195175	-0.769051236010271	4.0000359309223645
N	4.284259284919517	-1.4582692060102709	3.999990690922365
N	-4.283423705080483	1.4578585839897291	3.9999875409223646
C	-5.463735995080483	0.769369413989729	4.000038540922365
C	-5.478644895080483	-0.6577577660102711	3.999962560922365
N	-4.313025505080483	-1.3708896660102707	4.000011030922365
C	6.711825944919517	1.345120163989729	4.000024580922365
C	7.877608554919517	0.6271976939897289	3.9999615209223647
C	7.863717574919518	-0.7853004060102711	4.000038100922365
C	6.6840468949195175	-1.480213846010271	3.9999639909223648
C	-6.683117935080483	1.481360863989729	3.999962410922365
C	-7.863245835080482	0.7872408239897289	4.000039820922365
C	-7.878038035080483	-0.6252479760102712	3.999959730922365
C	-6.7127295350804825	-1.3439552660102712	4.000031750922365
F	9.066150434919518	1.245973803989729	4.000010850922365
F	9.039813504919517	-1.4273998460102708	3.999994490922365
F	-9.038915855080482	1.4301168739897292	3.9999840309223647
F	-9.066990955080483	-1.2432364960102709	4.0000170809223645
H	-6.675502315080482	2.564119053989729	4.000002370922365
H	-6.727971025080483	-2.426638876010271	3.999998470922365
H	6.677210964919517	-2.562976566010271	3.9999999409223648
H	6.726288284919518	2.427815203989729	4.000000670922365
