68
116a_F TS45.0
C	-0.6728601091342797	0.005653456076151309	4.3609224749734645e-06
C	0.6728338408657202	-0.008029713923848658	-3.2990775250265354e-06
S	1.6371065508657203	1.4911457360761513	1.4909224749734647e-06
C	3.20930242086572	0.6849226960761514	9.150922474973464e-06
C	3.19508102086572	-0.7511400939238487	-9.679077525026536e-06
S	1.6071341308657203	-1.5260474639238484	-5.089077525026535e-06
S	-1.6064264591342798	1.5241329460761515	5.009224749734645e-07
C	-3.1946827291342794	0.7500613360761513	-1.4907752502653543e-07
C	-3.20972348913428	-0.6859928639238487	1.3709224749734646e-06
S	-1.6378547691342797	-1.4930464939238486	3.3809224749734646e-06
N	4.31218134086572	1.3704949360761514	1.3580922474973463e-05
C	5.47821385086572	0.6580837460761514	-3.509907752502653e-05
C	5.46417464086572	-0.7690521739238486	3.5930922474973466e-05
N	4.28425926086572	-1.4582701439238486	-9.309077525026536e-06
N	-4.28342372913428	1.4578576460761514	-1.2459077525026536e-05
C	-5.46373601913428	0.7693684760761514	3.854092247497347e-05
C	-5.47864491913428	-0.6577587039238487	-3.743907752502653e-05
N	-4.31302552913428	-1.3708906039238484	1.1030922474973464e-05
C	6.71182592086572	1.3451192260761513	2.4580922474973465e-05
C	7.87760853086572	0.6271967560761513	-3.8479077525026534e-05
C	7.86371755086572	-0.7853013439238486	3.810092247497347e-05
C	6.68404687086572	-1.4802147839238486	-3.600907752502653e-05
C	-6.68311795913428	1.4813599260761514	-3.7589077525026534e-05
C	-7.863245859134279	0.7872398860761514	3.9820922474973465e-05
C	-7.87803805913428	-0.6252489139238487	-4.0269077525026536e-05
C	-6.71272955913428	-1.3439562039238488	3.175092247497347e-05
F	9.06615041086572	1.2459728660761513	1.0850922474973464e-05
F	9.03981348086572	-1.4274007839238485	-5.509077525026535e-06
F	-9.03891587913428	1.4301159360761515	-1.5969077525026535e-05
F	-9.06699097913428	-1.2432374339238486	1.7080922474973466e-05
H	-6.67550233913428	2.5641181160761515	2.3709224749734645e-06
H	-6.72797104913428	-2.4266398139238485	-1.5290775250265354e-06
H	6.67721094086572	-2.5629775039238485	-5.907752502653543e-08
H	6.72628826086572	2.4278142660761515	6.709224749734646e-07
C	-0.47579051702238223	0.003651382678740374	8.72862579402488
C	0.4757642248397512	-0.006023322681364621	9.68021888436466
S	1.1620985638322452	1.4959788091287693	10.351250672221196
C	2.2714500861499585	0.6944629770393453	11.468706270789633
C	2.257130131559094	-0.7415988106342492	11.468963718549583
S	1.131922996872018	-1.5212123248277194	10.351749133029745
S	-1.1314249228029358	1.5193042562293964	8.057607177090668
C	-2.2568446375020303	0.7405255175655865	6.940164123250993
C	-2.2717583552188247	-0.695529974477194	6.93985655381163
S	-1.1626366514561874	-1.4978773864417745	8.057082811724976
N	3.0533752482006027	1.3832993728533716	12.243592500640586
C	3.875832823191381	0.6743824000170009	13.073147672614498
C	3.8616047500018578	-0.752751599244513	13.073533291704349
N	3.0252222494517285	-1.4454633586515426	12.244174233557121
N	-3.0246171401514674	1.4450575218528168	6.165249533897693
C	-3.8613461884485853	0.7530740502077269	5.335672643887405
C	-3.876085279254016	-0.6740548567456645	5.335339316464344
N	-3.0539906749732406	-1.3836930496546502	6.164676261419906
C	4.75016953389669	1.3650717731888258	13.940499965336866
C	5.572444149664867	0.6506428395597944	14.76990790220681
C	5.5583605645751035	-0.761853301648545	14.770296998643797
C	4.722154551701577	-1.4602598373107805	13.941131500799715
C	-4.72144212362927	1.4614114987766187	4.468310443011889
C	-5.558076226140639	0.7637980667824333	3.6389230942437703
C	-5.572686292912027	-0.648692585506612	3.638564115565556
C	-4.7508447862454215	-1.3639067561853093	4.46773798276026
F	6.414714090821082	1.2729405956776958	15.605875919662891
F	6.388140169966468	-1.400430644075922	15.60646570980659
F	-6.387482059153115	1.4031525495051569	2.802979660577252
F	-6.41531998039053	-1.270203232659523	2.8023752347980047
H	-4.712860490321044	2.544159864233566	4.465937692090711
H	-4.764823456036378	-2.4466032092718266	4.464722895305469
H	4.714070578903602	-2.54300986451413	13.944109256349169
H	4.763637709226032	2.447776924028388	13.94292361740444
