68
116a_F PD long+short
C	-0.6728601091342797	0.005653456076151309	4.3609224749734645e-06
C	0.6728338408657202	-0.008029713923848658	-3.2990775250265354e-06
S	1.6371065508657203	1.4911457360761513	1.4909224749734647e-06
C	3.20930242086572	0.6849226960761514	9.150922474973464e-06
C	3.19508102086572	-0.7511400939238487	-9.679077525026536e-06
S	1.6071341308657203	-1.5260474639238484	-5.089077525026535e-06
S	-1.6064264591342798	1.5241329460761515	5.009224749734645e-07
C	-3.1946827291342794	0.7500613360761513	-1.4907752502653543e-07
C	-3.20972348913428	-0.6859928639238487	1.3709224749734646e-06
S	-1.6378547691342797	-1.4930464939238486	3.3809224749734646e-06
N	4.31218134086572	1.3704949360761514	1.3580922474973463e-05
C	5.47821385086572	0.6580837460761514	-3.509907752502653e-05
C	5.46417464086572	-0.7690521739238486	3.5930922474973466e-05
N	4.28425926086572	-1.4582701439238486	-9.309077525026536e-06
N	-4.28342372913428	1.4578576460761514	-1.2459077525026536e-05
C	-5.46373601913428	0.7693684760761514	3.854092247497347e-05
C	-5.47864491913428	-0.6577587039238487	-3.743907752502653e-05
N	-4.31302552913428	-1.3708906039238484	1.1030922474973464e-05
C	6.71182592086572	1.3451192260761513	2.4580922474973465e-05
C	7.87760853086572	0.6271967560761513	-3.8479077525026534e-05
C	7.86371755086572	-0.7853013439238486	3.810092247497347e-05
C	6.68404687086572	-1.4802147839238486	-3.600907752502653e-05
C	-6.68311795913428	1.4813599260761514	-3.7589077525026534e-05
C	-7.863245859134279	0.7872398860761514	3.9820922474973465e-05
C	-7.87803805913428	-0.6252489139238487	-4.0269077525026536e-05
C	-6.71272955913428	-1.3439562039238488	3.175092247497347e-05
F	9.06615041086572	1.2459728660761513	1.0850922474973464e-05
F	9.03981348086572	-1.4274007839238485	-5.509077525026535e-06
F	-9.03891587913428	1.4301159360761515	-1.5969077525026535e-05
F	-9.06699097913428	-1.2432374339238486	1.7080922474973466e-05
H	-6.67550233913428	2.5641181160761515	2.3709224749734645e-06
H	-6.72797104913428	-2.4266398139238485	-1.5290775250265354e-06
H	6.67721094086572	-2.5629775039238485	-5.907752502653543e-08
H	6.72628826086572	2.4278142660761515	6.709224749734646e-07
C	4.5655201642617	-1.845182881055298	3.500004763402969
C	5.911214114261699	-1.8588660510552981	3.4999971034029693
S	6.875486824261699	-0.3596906010552981	3.500001893402969
C	8.4476826942617	-1.165913641055298	3.500009553402969
C	8.433461294261699	-2.601976431055298	3.499990723402969
S	6.845514404261699	-3.3768838010552975	3.499995313402969
S	3.6319538142616996	-0.32670339105529794	3.5000009034029693
C	2.0436975442617	-1.1007750010552981	3.5000002534029693
C	2.0286567842616994	-2.536829201055298	3.5000017734029694
S	3.6005255042616997	-3.3438828310552977	3.500003783402969
N	9.550561614261701	-0.48034140105529805	3.5000139834029693
C	10.7165941242617	-1.192752591055298	3.499965303402969
C	10.7025549142617	-2.619888511055298	3.500036333402969
N	9.5226395342617	-3.309106481055298	3.499991093402969
N	0.9549565442616993	-0.392978691055298	3.499987943402969
C	-0.22535574573830053	-1.081467861055298	3.500038943402969
C	-0.24026464573830053	-2.508595041055298	3.499962963402969
N	0.9253547442616993	-3.2217269410552976	3.5000114334029693
C	11.9502061942617	-0.505717111055298	3.500024983402969
C	13.115988804261699	-1.223639581055298	3.499961923402969
C	13.1020978242617	-2.636137681055298	3.500038503402969
C	11.9224271442617	-3.331051121055298	3.499964393402969
C	-1.4447376857383005	-0.369476411055298	3.499962813402969
C	-2.6248655857383	-1.063596451055298	3.5000402234029693
C	-2.6396577857383003	-2.476085251055298	3.4999601334029693
C	-1.4743492857383005	-3.1947925410552984	3.500032153402969
F	14.304530684261701	-0.604863471055298	3.500011253402969
F	14.278193754261698	-3.2782371210552976	3.499994893402969
F	-3.8005356057383	-0.4207204010552979	3.499984433402969
F	-3.8286107057383005	-3.094073771055298	3.5000174834029694
H	-1.4371220657383004	0.7132817789447021	3.500002773402969
H	-1.4895907757383007	-4.277476151055298	3.4999988734029692
H	11.9155912142617	-4.4138138410552985	3.500000343402969
H	11.9646685342617	0.5769779289447021	3.500001073402969
