68
116a_F cofacial 5.0A
C	-0.6728601091342797	0.005653456076151309	4.3609224749734645e-06
C	0.6728338408657202	-0.008029713923848658	-3.2990775250265354e-06
S	1.6371065508657203	1.4911457360761513	1.4909224749734647e-06
C	3.20930242086572	0.6849226960761514	9.150922474973464e-06
C	3.19508102086572	-0.7511400939238487	-9.679077525026536e-06
S	1.6071341308657203	-1.5260474639238484	-5.089077525026535e-06
S	-1.6064264591342798	1.5241329460761515	5.009224749734645e-07
C	-3.1946827291342794	0.7500613360761513	-1.4907752502653543e-07
C	-3.20972348913428	-0.6859928639238487	1.3709224749734646e-06
S	-1.6378547691342797	-1.4930464939238486	3.3809224749734646e-06
N	4.31218134086572	1.3704949360761514	1.3580922474973463e-05
C	5.47821385086572	0.6580837460761514	-3.509907752502653e-05
C	5.46417464086572	-0.7690521739238486	3.5930922474973466e-05
N	4.28425926086572	-1.4582701439238486	-9.309077525026536e-06
N	-4.28342372913428	1.4578576460761514	-1.2459077525026536e-05
C	-5.46373601913428	0.7693684760761514	3.854092247497347e-05
C	-5.47864491913428	-0.6577587039238487	-3.743907752502653e-05
N	-4.31302552913428	-1.3708906039238484	1.1030922474973464e-05
C	6.71182592086572	1.3451192260761513	2.4580922474973465e-05
C	7.87760853086572	0.6271967560761513	-3.8479077525026534e-05
C	7.86371755086572	-0.7853013439238486	3.810092247497347e-05
C	6.68404687086572	-1.4802147839238486	-3.600907752502653e-05
C	-6.68311795913428	1.4813599260761514	-3.7589077525026534e-05
C	-7.863245859134279	0.7872398860761514	3.9820922474973465e-05
C	-7.87803805913428	-0.6252489139238487	-4.0269077525026536e-05
C	-6.71272955913428	-1.3439562039238488	3.175092247497347e-05
F	9.06615041086572	1.2459728660761513	1.0850922474973464e-05
F	9.03981348086572	-1.4274007839238485	-5.509077525026535e-06
F	-9.03891587913428	1.4301159360761515	-1.5969077525026535e-05
F	-9.06699097913428	-1.2432374339238486	1.7080922474973466e-05
H	-6.67550233913428	2.5641181160761515	2.3709224749734645e-06
H	-6.72797104913428	-2.4266398139238485	-1.5290775250265354e-06
H	6.67721094086572	-2.5629775039238485	-5.907752502653543e-08
H	6.72628826086572	2.4278142660761515	6.709224749734646e-07
C	-0.6728600790670328	0.005654628468123341	5.000004360922337
C	0.6728338709329671	-0.008028541531876626	4.999996700922337
S	1.6371065809329672	1.4911469084681233	5.000001490922338
C	3.209302450932967	0.6849238684681235	5.000009150922337
C	3.195081050932967	-0.7511389215318767	4.999990320922337
S	1.6071341609329672	-1.5260462915318764	4.999994910922338
S	-1.606426429067033	1.5241341184681234	5.000000500922337
C	-3.1946826990670325	0.7500625084681234	4.999999850922337
C	-3.209723459067033	-0.6859916915318767	5.000001370922337
S	-1.6378547390670328	-1.4930453215318766	5.000003380922338
N	4.312181370932968	1.3704961084681233	5.000013580922337
C	5.478213880932968	0.6580849184681234	4.999964900922337
C	5.464174670932968	-0.7690510015318766	5.000035930922337
N	4.284259290932967	-1.4582689715318766	4.9999906909223375
N	-4.283423699067033	1.4578588184681234	4.999987540922337
C	-5.4637359890670325	0.7693696484681235	5.000038540922337
C	-5.4786448890670325	-0.6577575315318767	4.999962560922337
N	-4.313025499067033	-1.3708894315318765	5.000011030922337
C	6.711825950932967	1.3451203984681233	5.000024580922338
C	7.877608560932967	0.6271979284681234	4.999961520922337
C	7.863717580932968	-0.7853001715318766	5.000038100922337
C	6.684046900932968	-1.4802136115318767	4.999963990922337
C	-6.683117929067032	1.4813610984681234	4.999962410922337
C	-7.863245829067032	0.7872410584681234	5.000039820922337
C	-7.878038029067032	-0.6252477415318767	4.999959730922337
C	-6.712729529067032	-1.343955031531877	5.0000317509223375
F	9.066150440932967	1.2459740384681233	5.0000108509223375
F	9.039813510932966	-1.4273996115318766	4.9999944909223375
F	-9.038915849067033	1.4301171084681235	4.999984030922337
F	-9.066990949067034	-1.2432362615318766	5.000017080922337
H	-6.675502309067032	2.5641192884681234	5.000002370922338
H	-6.7279710190670325	-2.4266386415318766	4.999998470922337
H	6.6772109709329674	-2.5629763315318765	4.999999940922337
H	6.726288290932968	2.4278154384681234	5.000000670922337
