48
132a cofacial 5.0A
C	-2.4274851415714434	-0.699073132110821	-6.495758956670894e-05
C	-2.425237391571443	0.7068366778891788	6.234241043329107e-05
C	-1.2302717615714434	1.403495447889179	-9.532758956670893e-05
C	0.0011343184285568242	0.7093167378891789	0.00012380241043329106
C	-0.001136521571443172	-0.709316502110821	-0.00012193758956670894
C	-1.234755911571443	-1.399552902110821	9.755241043329106e-05
C	1.2347541484285567	1.399552587889179	-9.969758956670893e-05
C	2.4274830584285567	0.6990727978891789	6.405241043329106e-05
C	2.4252352484285566	-0.706836522110821	-6.220758956670894e-05
C	1.2302697984285569	-1.403494862110821	9.605241043329107e-05
C	-1.2340988915714437	2.886541597889179	5.503241043329107e-05
O	0.005620858428556641	3.512639977889179	-2.7297589566708926e-05
C	1.2433315384285568	2.882579197889179	5.338241043329107e-05
O	2.2260083484285564	3.560744527889179	-1.2667589566708927e-05
O	-2.2145955915714435	3.567863457889179	-1.2457589566708927e-05
C	-1.2433308815714437	-2.882579602110821	-5.3607589566708926e-05
O	-0.0056195115714432475	-3.512640112110821	2.2922410433291075e-05
C	1.2340992884285567	-2.886540812110821	-5.5897589566708926e-05
O	2.2145982484285565	-3.567857352110821	1.5682410433291073e-05
O	-2.226005191571443	-3.560751012110821	1.5032410433291074e-05
H	-3.3560044715714437	1.261435177889179	-1.2347589566708927e-05
H	-3.360023241571443	-1.250690982110821	1.1042410433291073e-05
H	3.3600207384285565	1.250691177889179	-1.3207589566708927e-05
H	3.3560017784285567	-1.2614357021108211	1.2112410433291073e-05
C	-2.4274851466412035	-0.6990754992469077	4.999935042409873
C	-2.425237396641203	0.7068343107530921	5.000062342409873
C	-1.2302717666412035	1.4034930807530923	4.999904672409873
C	0.0011343133587965468	0.7093143707530922	5.000123802409873
C	-0.0011365266412034494	-0.7093188692469077	4.999878062409873
C	-1.2347559166412032	-1.3995552692469078	5.000097552409873
C	1.2347541433587965	1.3995502207530923	4.9999003024098725
C	2.4274830533587965	0.6990704307530922	5.000064052409873
C	2.4252352433587965	-0.7068388892469077	4.999937792409873
C	1.2302697933587967	-1.4034972292469077	5.000096052409873
C	-1.2340988966412039	2.886539230753092	5.000055032409873
O	0.005620853358796364	3.5126376107530923	4.999972702409873
C	1.2433315333587966	2.8825768307530923	5.000053382409873
O	2.2260083433587963	3.5607421607530925	4.999987332409873
O	-2.2145955966412036	3.5678610907530923	4.9999875424098725
C	-1.2433308866412038	-2.8825819692469077	4.999946392409873
O	-0.005619516641203525	-3.5126424792469075	5.0000229224098725
C	1.2340992833587965	-2.8865431792469076	4.999944102409873
O	2.2145982433587963	-3.5678597192469077	5.000015682409873
O	-2.226005196641203	-3.5607533792469077	5.000015032409872
H	-3.356004476641204	1.2614328107530923	4.999987652409873
H	-3.360023246641203	-1.2506933492469077	5.000011042409873
H	3.3600207333587964	1.2506888107530922	4.999986792409873
H	3.3560017733587966	-1.2614380692469078	5.000012112409872
