48
132a TS90.0
C	-2.4274851415714434	-0.699073132110821	-6.495758956670894e-05
C	-2.425237391571443	0.7068366778891788	6.234241043329107e-05
C	-1.2302717615714434	1.403495447889179	-9.532758956670893e-05
C	0.0011343184285568242	0.7093167378891789	0.00012380241043329106
C	-0.001136521571443172	-0.709316502110821	-0.00012193758956670894
C	-1.234755911571443	-1.399552902110821	9.755241043329106e-05
C	1.2347541484285567	1.399552587889179	-9.969758956670893e-05
C	2.4274830584285567	0.6990727978891789	6.405241043329106e-05
C	2.4252352484285566	-0.706836522110821	-6.220758956670894e-05
C	1.2302697984285569	-1.403494862110821	9.605241043329107e-05
C	-1.2340988915714437	2.886541597889179	5.503241043329107e-05
O	0.005620858428556641	3.512639977889179	-2.7297589566708926e-05
C	1.2433315384285568	2.882579197889179	5.338241043329107e-05
O	2.2260083484285564	3.560744527889179	-1.2667589566708927e-05
O	-2.2145955915714435	3.567863457889179	-1.2457589566708927e-05
C	-1.2433308815714437	-2.882579602110821	-5.3607589566708926e-05
O	-0.0056195115714432475	-3.512640112110821	2.2922410433291075e-05
C	1.2340992884285567	-2.886540812110821	-5.5897589566708926e-05
O	2.2145982484285565	-3.567857352110821	1.5682410433291073e-05
O	-2.226005191571443	-3.560751012110821	1.5032410433291074e-05
H	-3.3560044715714437	1.261435177889179	-1.2347589566708927e-05
H	-3.360023241571443	-1.250690982110821	1.1042410433291073e-05
H	3.3600207384285565	1.250691177889179	-1.3207589566708927e-05
H	3.3560017784285567	-1.2614357021108211	1.2112410433291073e-05
C	-2.426360406172612	0.003820850087878107	-6.211358650902004
C	-2.4263621146921572	0.003948152984735244	-7.617270257736033
C	-1.2325145501702706	0.0018801506922579768	-8.31584025395024
C	-4.874356766557582e-07	0.00012707678512927757	-7.623632860758337
C	-1.6990732949513203e-06	-0.0001186615906769716	-6.204997803265913
C	-1.232513102411748	0.002073028622562488	-5.512788317214559
C	1.2325113503651453	-0.00206862412844776	-8.315841797514459
C	2.4263583361430117	-0.0038152050833562164	-7.617271443314992
C	2.426359985542792	-0.0039414678842815696	-6.211360326384328
C	1.2325126012764687	-0.001872875879484437	-5.512790760457597
C	-1.2387145153951766	0.0020404317430629715	-9.798878381343862
O	8.179049954652091e-08	-2.40243191598594e-05	-10.42695969096644
C	1.2387159089980944	-0.0019254721409080412	-9.7988802339619
O	2.220304935828158	-0.003562209366340065	-10.47861712098985
O	-2.220299025132269	0.0035436215695178624	-10.478630432347893
C	-1.2387152378346016	0.0019317927599874583	-4.029749794639585
O	1.2722985847070104e-06	2.6193840144682832e-05	-3.401670608738798
C	1.238714923631072	-0.0020347507040799906	-4.02975283684006
O	2.2203016913942126	-0.003533854138473257	-3.3500061094455456
O	-2.2203017507978218	0.003571115966177767	-3.3500068316197793
H	-3.358014367808865	0.005364243830768915	-8.170378685570805
H	-3.3580133294988457	0.005387632199264368	-5.658249311062466
H	3.3580108366060615	-0.005383246519712146	-8.170381312481792
H	3.35801168915695	-0.005357927851503846	-5.658251217670347
