48
132a cofacial 4.5A
C	-2.4274851415714434	-0.699073132110821	-6.495758956670894e-05
C	-2.425237391571443	0.7068366778891788	6.234241043329107e-05
C	-1.2302717615714434	1.403495447889179	-9.532758956670893e-05
C	0.0011343184285568242	0.7093167378891789	0.00012380241043329106
C	-0.001136521571443172	-0.709316502110821	-0.00012193758956670894
C	-1.234755911571443	-1.399552902110821	9.755241043329106e-05
C	1.2347541484285567	1.399552587889179	-9.969758956670893e-05
C	2.4274830584285567	0.6990727978891789	6.405241043329106e-05
C	2.4252352484285566	-0.706836522110821	-6.220758956670894e-05
C	1.2302697984285569	-1.403494862110821	9.605241043329107e-05
C	-1.2340988915714437	2.886541597889179	5.503241043329107e-05
O	0.005620858428556641	3.512639977889179	-2.7297589566708926e-05
C	1.2433315384285568	2.882579197889179	5.338241043329107e-05
O	2.2260083484285564	3.560744527889179	-1.2667589566708927e-05
O	-2.2145955915714435	3.567863457889179	-1.2457589566708927e-05
C	-1.2433308815714437	-2.882579602110821	-5.3607589566708926e-05
O	-0.0056195115714432475	-3.512640112110821	2.2922410433291075e-05
C	1.2340992884285567	-2.886540812110821	-5.5897589566708926e-05
O	2.2145982484285565	-3.567857352110821	1.5682410433291073e-05
O	-2.226005191571443	-3.560751012110821	1.5032410433291074e-05
H	-3.3560044715714437	1.261435177889179	-1.2347589566708927e-05
H	-3.360023241571443	-1.250690982110821	1.1042410433291073e-05
H	3.3600207384285565	1.250691177889179	-1.3207589566708927e-05
H	3.3560017784285567	-1.2614357021108211	1.2112410433291073e-05
C	-2.4274851461342277	-0.6990752625332991	4.499935042409929
C	-2.4252373961342273	0.7068345474667007	4.500062342409929
C	-1.2302717661342275	1.403493317466701	4.4999046724099285
C	0.0011343138657725744	0.7093146074667008	4.500123802409929
C	-0.0011365261342274218	-0.7093186325332991	4.499878062409929
C	-1.2347559161342272	-1.399555032533299	4.500097552409929
C	1.2347541438657725	1.399550457466701	4.499900302409928
C	2.4274830538657723	0.6990706674667008	4.500064052409929
C	2.4252352438657723	-0.7068386525332991	4.499937792409929
C	1.2302697938657727	-1.403496992533299	4.500096052409929
C	-1.2340988961342279	2.886539467466701	4.500055032409929
O	0.005620853865772392	3.512637847466701	4.499972702409929
C	1.2433315338657727	2.882577067466701	4.500053382409929
O	2.226008343865772	3.560742397466701	4.499987332409929
O	-2.214595596134228	3.567861327466701	4.4999875424099285
C	-1.2433308861342278	-2.882581732533299	4.499946392409929
O	-0.005619516134227497	-3.512642242533299	4.500022922409928
C	1.2340992838657725	-2.886542942533299	4.499944102409929
O	2.214598243865772	-3.567859482533299	4.500015682409929
O	-2.2260051961342273	-3.560753142533299	4.500015032409928
H	-3.356004476134228	1.261433047466701	4.499987652409929
H	-3.360023246134227	-1.250693112533299	4.500011042409929
H	3.360020733865772	1.250689047466701	4.499986792409929
H	3.3560017738657724	-1.261437832533299	4.500012112409928
