    34
 geometry
 C                    -7.40541351    -1.87072379    -0.00000460
 C                    -7.27314133    -0.44447507    -0.00001068
 C                    -6.04251490     0.13804371     0.00001828
 C                    -4.84744162    -0.65714730     0.00000349
 C                    -4.98206168    -2.10774565    -0.00001671
 C                    -6.30296981    -2.66951703     0.00001498
 C                    -3.58445911    -0.08627469    -0.00000267
 C                    -2.41837092    -0.88278535    -0.00000209
 C                    -2.55306875    -2.33345928    -0.00000376
 C                    -3.84589098    -2.90126121    -0.00000366
 N                    -1.21463458    -0.29237101    -0.00000181
 C                    -0.14030483    -1.09447817    -0.00000061
 C                    -0.27519718    -2.54513537    -0.00000500
 N                    -1.47877507    -3.13489834    -0.00000063
 C                     1.15261670    -0.52655988     0.00000698
 C                     2.28872733    -1.32039696     0.00000506
 C                     2.15379876    -2.77096722    -0.00001104
 C                     0.89081785    -3.34151403     0.00000927
 C                     3.60977759    -0.75889716    -0.00001864
 C                     4.71202183    -1.55801632    -0.00000365
 C                     4.57944098    -2.98423588     0.00001864
 C                     3.34868181    -3.56640258    -0.00000947
 H                    -3.45653057     0.99119926     0.00001199
 H                    -5.94200329     1.21910943    -0.00000067
 H                    -8.16727935     0.17041063    -0.00000739
 H                    -8.39751843    -2.31046747     0.00001551
 H                    -6.40312561    -3.75056646    -0.00001462
 H                    -3.91878457    -3.98372735     0.00000603
 H                     0.76268301    -4.41884280    -0.00000198
 H                     3.24786529    -4.64738173     0.00001053
 H                     5.47348230    -3.59926303    -0.00000601
 H                     5.70420345    -1.11845155     0.00001435
 H                     3.71023419     0.32218643    -0.00000890
 H                     1.22573498     0.55601322    -0.00000051
