    36
 geometry
 C                    -7.51817402    -1.88660604     0.00006271
 C                    -7.38940370    -0.45284426    -0.00007012
 C                    -6.10456773     0.11408528     0.00005844
 C                    -4.95320106    -0.66992289    -0.00006855
 C                    -5.08239063    -2.10731307     0.00007072
 C                    -6.35503330    -2.67351450    -0.00005523
 C                    -3.63945531    -0.10521932     0.00002978
 C                    -2.51769324    -0.88751290    -0.00002708
 C                    -2.64723200    -2.32760164     0.00003360
 C                    -3.89047832    -2.89726988    -0.00003327
 N                    -1.23258319    -0.36014904     0.00000668
 C                    -0.06865850    -1.12590440    -0.00003605
 C                    -0.19509294    -2.53028638     0.00003225
 N                    -1.47696152    -3.07584432    -0.00001582
 C                     1.20024721    -0.55196831     0.00004995
 C                     2.34332502    -1.35356371    -0.00003423
 C                     2.21864035    -2.73766651     0.00001686
 C                     0.95066724    -3.32188876    -0.00001552
 H                    -1.13771129     0.64288952     0.00000718
 H                    -1.56263415    -4.07971675     0.00000007
 H                    -3.53707958     0.97706005    -0.00001524
 H                    -6.00863562     1.19696769    -0.00000582
 H                    -6.45369611    -3.75614738     0.00000660
 H                    -3.98269224    -3.98045604     0.00001559
 H                     0.84822542    -4.40370878    -0.00000690
 H                     1.29325989     0.53070142    -0.00001278
 C                    -8.57453314     0.33859958     0.00002330
 C                    -9.81424964    -0.24459783    -0.00000569
 C                    -9.94129384    -1.65966631     0.00000786
 C                    -8.82527490    -2.45427168    -0.00002400
 H                    -8.47738786     1.42074319    -0.00000087
 H                   -10.70708114     0.37294200    -0.00000180
 H                   -10.92972199    -2.10858474     0.00000262
 H                    -8.92247669    -3.53639472    -0.00000063
 H                     3.09951875    -3.37007603    -0.00000060
 H                     3.32304977    -0.88877254     0.00000599
