    34
 geometry
 C                    -8.38677104    -1.23195745    -0.00008273
 C                    -8.31735542     0.19733035     0.00007877
 C                    -7.11555322     0.83793187    -0.00008842
 C                    -5.89267281     0.09063730     0.00018635
 C                    -5.96318601    -1.36095036    -0.00017384
 C                    -7.25284653    -1.98611498     0.00009301
 C                    -4.65253996     0.70527825    -0.00012774
 C                    -3.44347226    -0.02596481     0.00010196
 C                    -3.51425912    -1.48240431    -0.00011383
 C                    -4.78855147    -2.09300264     0.00012498
 N                    -2.27116297     0.61313623     0.00000767
 C                    -1.16612260    -0.13627420    -0.00011883
 C                    -1.23658426    -1.59272712     0.00010388
 N                    -2.40903862    -2.23148730     0.00000524
 C                     0.10807715     0.47454852     0.00012138
 C                     1.28285530    -0.25720665    -0.00018227
 C                     1.21261669    -1.70880867     0.00019187
 C                    -0.02740340    -2.32375420    -0.00012760
 C                     2.57235215     0.36822740     0.00009812
 C                     3.70647241    -0.38560021    -0.00008331
 C                     3.63732532    -1.81490027     0.00008449
 C                     2.43568719    -2.45585227    -0.00009290
 F                    -4.58381994     2.04576767     0.00001013
 F                    -4.85031656    -3.43382468    -0.00000867
 F                     0.16966350     1.81538743    -0.00000917
 F                    -0.09594618    -3.66424346     0.00000585
 H                    -7.05980045     1.91931842     0.00001605
 H                    -9.23697933     0.77266078    -0.00000962
 H                    -9.35771853    -1.71572698     0.00000459
 H                    -7.30288430    -3.06776610    -0.00001267
 H                     2.38028545    -3.53725003     0.00001469
 H                     4.55709004    -2.39001893    -0.00000819
 H                     4.67729145     0.09841086     0.00000557
 H                     2.62203833     1.44990054    -0.00001481
