    34
 geometry
 C                    -7.76129972    -1.95714703     0.00003357
 C                    -7.72618964    -0.56675394    -0.00001357
 C                    -6.50020227     0.09874940     0.00001862
 C                    -5.30653876    -0.61912714    -0.00003619
 C                    -5.34202682    -2.02723003     0.00004250
 C                    -6.57050448    -2.68381268    -0.00005651
 N                    -4.06166621     0.00696568     0.00002464
 C                    -2.84877856    -0.65965597    -0.00003955
 C                    -2.88521859    -2.11054095     0.00003842
 N                    -4.13019882    -2.71529862    -0.00001893
 C                    -1.64714843    -0.00545154     0.00006116
 C                    -0.41308242    -0.72144199    -0.00014926
 C                    -0.44933317    -2.17081232     0.00015018
 C                    -1.71779503    -2.82412884    -0.00006220
 N                     0.73669937    -0.05317280     0.00007790
 C                     1.87163750    -0.78503888    -0.00007738
 C                     1.83582674    -2.22126572     0.00007668
 N                     0.66572988    -2.89558722    -0.00007919
 C                     3.13121578    -0.12655514     0.00001350
 C                     4.29435741    -0.85332129     0.00000339
 C                     4.25902607    -2.27321274    -0.00000052
 C                     3.06124375    -2.94142415    -0.00000798
 H                    -4.03975717     1.01477937    -0.00001063
 H                    -4.15912689    -3.72293094     0.00000855
 H                    -6.46778240     1.18467826     0.00000519
 H                    -8.64654363     0.00646849     0.00000684
 H                    -8.70941800    -2.48316955    -0.00001534
 H                    -6.59326314    -3.76998564     0.00001606
 H                    -1.72179118    -3.90933760     0.00000735
 H                     3.00716674    -4.02463706     0.00000274
 H                     5.19108427    -2.82941642    -0.00000092
 H                     5.25288597    -0.34406703     0.00000483
 H                     3.13065208     0.95800667    -0.00001426
 H                    -1.59686026     1.07859533    -0.00000970
