    28
 geometry
 N                    -1.78505072    -0.80473727    -0.00000282
 C                    -0.68635509    -1.64024549    -0.00000090
 C                    -2.91777831    -1.59331571     0.00001166
 C                    -2.53556237    -2.93437967     0.00000706
 C                    -1.12482491    -2.96405230    -0.00000551
 C                     0.73493765    -1.47954171    -0.00000972
 C                     1.36246225    -2.75457988     0.00000845
 S                     0.20706725    -4.10343848    -0.00000063
 C                    -4.33091741    -1.37259178    -0.00000434
 C                    -5.01187658    -2.61991680    -0.00000430
 S                    -3.91449502    -4.01645267     0.00000065
 C                     1.53827608    -0.32839769     0.00000128
 C                     2.91980849    -0.45392415    -0.00000124
 C                     3.52395474    -1.71887344     0.00000589
 C                     2.74968354    -2.87435783    -0.00000884
 C                    -5.08462327    -0.18838994     0.00000241
 C                    -6.47021011    -0.25520190    -0.00000459
 C                    -7.12741999    -1.49337878     0.00000137
 C                    -6.40295664    -2.68073937     0.00000141
 H                    -1.76424755     0.20038434     0.00000529
 H                    -4.58728170     0.77706961    -0.00000286
 H                    -7.05154570     0.66088625    -0.00000019
 H                    -8.21163315    -1.52891605    -0.00000231
 H                    -6.91459536    -3.63761398     0.00000269
 H                     1.08239711     0.65730733     0.00000049
 H                     3.53953108     0.43663934     0.00000256
 H                     4.60567976    -1.80066574    -0.00000432
 H                     3.22019593    -3.85210624     0.00000136
