    32
 geometry
 C                    -4.29963785    -1.78853216    -0.00004019
 C                    -4.52850707    -0.40363224     0.00001355
 C                    -3.47430526     0.50365146    -0.00000547
 C                    -3.00420981    -2.29234491     0.00002399
 C                    -2.17603644    -0.00688127     0.00000284
 C                    -1.92443709    -1.40426698    -0.00000316
 C                    -0.48591616    -1.57293276    -0.00005822
 C                     0.07893669    -0.26176416     0.00003373
 N                    -0.96428109     0.65819719    -0.00000747
 C                     1.44934973    -0.03660821     0.00000702
 C                     0.34312943    -2.69738092     0.00006762
 C                     2.27849155    -1.16108742     0.00002146
 C                     1.71346132    -2.47219887    -0.00006370
 C                     3.71705781    -1.33021167    -0.00002647
 C                     3.96817506    -2.72771704    -0.00000440
 N                     2.75631421    -3.39240053    -0.00000263
 C                     4.79741156    -0.44280152     0.00003898
 C                     6.09259724    -0.94732974    -0.00000984
 C                     6.32082832    -2.33235089    -0.00001974
 C                     5.26611237    -3.23898972     0.00003956
 H                    -0.85241033     1.65732426     0.00000013
 H                     2.64409122    -4.39148711     0.00001348
 H                    -3.65968195     1.57345656     0.00000618
 H                    -5.54806337    -0.03139799     0.00000805
 H                    -2.83474986    -3.36493483     0.00000059
 H                    -5.14405067    -2.46974749     0.00000700
 H                    -0.06858056    -3.70186448    -0.00000949
 H                     5.45070178    -4.30893408    -0.00002431
 H                     7.34017226    -2.70520302     0.00002133
 H                     6.93734108    -0.26652460    -0.00000337
 H                     4.62877773     0.62990648    -0.00001400
 H                     1.86101816     0.96788869    -0.00001304
