    48
 geometry
 N                    -5.16375279    -1.37818107     0.00002576
 C                    -4.35279631    -0.23103451    -0.00017978
 C                    -3.02130405    -0.66627567     0.00022300
 C                    -3.02339133    -2.09637703    -0.00006957
 C                    -4.35616437    -2.52768829    -0.00000413
 C                    -4.57576376     1.15683649     0.00012243
 C                    -3.47278320     2.02286680    -0.00013834
 C                    -2.11277365     1.58590497     0.00021276
 C                    -1.95685171     0.20536547    -0.00019911
 C                    -1.96139032    -2.97103278    -0.00004553
 C                    -4.58312093    -3.91490453     0.00002191
 C                    -3.48260162    -4.78403704    -0.00005863
 C                    -2.12122979    -4.35119037     0.00009163
 C                    -0.99838883     2.56250001    -0.00009079
 C                     0.37445317     2.55966911     0.00006343
 C                     1.48502483     1.57855527    -0.00008346
 C                    -1.01064480    -5.33228383    -0.00007187
 C                     0.36219714    -5.33515045     0.00008837
 C                     1.47656866    -4.35853517    -0.00022021
 C                     1.32519316     0.19839889     0.00003697
 C                     2.84639795     2.01140530     0.00004864
 C                     3.94691903     1.14227377    -0.00000849
 C                     3.71996651    -0.24494324    -0.00000924
 C                     2.38719330    -0.67625558     0.00008653
 N                     4.52755274    -1.39445179    -0.00002323
 C                     2.38510568    -2.10635641    -0.00022355
 C                     3.71659776    -2.54159921     0.00018469
 C                     2.83657995    -4.79549902     0.00015650
 C                     1.32065497    -2.97799684     0.00020453
 C                     3.93956340    -3.92947082    -0.00013017
 H                    -6.16957328    -1.37671028     0.00000782
 H                     5.53337385    -1.39592205    -0.00000822
 H                    -0.99707974    -0.24693278     0.00000159
 H                    -1.00050941    -2.52094600    -0.00001247
 H                     0.36088021    -2.52570145    -0.00000986
 H                     0.36431027    -0.25168556     0.00001433
 H                    -5.57711138     1.57618486    -0.00000370
 H                    -3.67513669     3.09038776     0.00001105
 H                    -1.39077478     3.57898750     0.00000940
 H                     0.77108828     3.57441602    -0.00000207
 H                     3.05181959     3.07832904    -0.00001458
 H                     4.94945840     1.55876896    -0.00001506
 H                     4.94091164    -4.34881750     0.00000468
 H                     3.03893879    -5.86301904    -0.00001839
 H                     0.75457705    -6.35163155    -0.00000669
 H                    -1.40728573    -6.34703714     0.00000719
 H                    -3.68801856    -5.85096199     0.00001212
 H                    -5.58565928    -4.33140124     0.00001181
