    32
 geometry
 C                    -4.91345407    -1.64464744     0.00000736
 C                    -4.77363562    -0.25217130     0.00000666
 C                    -3.50885008     0.32898507    -0.00000621
 C                    -2.39221103    -0.49530045     0.00000709
 C                    -2.50168623    -1.89791723     0.00001088
 C                    -3.78987020    -2.45714089    -0.00001458
 O                    -1.15330894     0.09752427     0.00000765
 C                    -0.04265970    -0.68982022    -0.00001168
 C                    -0.21549712    -2.14360804    -0.00000105
 N                    -1.39036170    -2.71940072    -0.00000162
 C                     1.17987272    -0.10281051     0.00001138
 C                     2.37452307    -0.89795660     0.00000348
 C                     2.20181274    -2.35175385     0.00000615
 C                     0.97923052    -2.93878145    -0.00001036
 N                     3.54928049    -0.32191188     0.00000020
 C                     4.66072519    -1.14321021    -0.00000548
 C                     4.55154543    -2.54584457    -0.00000487
 O                     3.31267170    -3.13894180    -0.00000935
 C                     5.94869391    -0.58350658     0.00001650
 C                     7.07257387    -1.39556539    -0.00001634
 C                     6.93314046    -2.78809099    -0.00000285
 C                     5.66853800    -3.36971539     0.00000790
 H                    -3.37224672     1.40465002    -0.00000470
 H                    -5.65289032     0.38287016    -0.00001037
 H                    -5.90278274    -2.08907505     0.00000293
 H                    -3.86481319    -3.53872524     0.00000628
 H                     0.87269280    -4.01643014    -0.00000197
 H                     5.53251081    -4.44545860     0.00000083
 H                     7.81260037    -3.42285377     0.00000833
 H                     8.06174828    -0.95077590     0.00000189
 H                     6.02304905     0.49812993    -0.00000567
 H                     1.28643823     0.97483477     0.00000161
