    26
 geometry
 C                    -5.93567770    -0.80154955    -0.00012081
 C                    -5.93342404     0.60360090     0.00013366
 C                    -4.74083385     1.30116228    -0.00018950
 C                    -3.50380032     0.60769036     0.00021898
 C                    -3.50607906    -0.81342181    -0.00020505
 C                    -4.74532652    -1.50293018     0.00015403
 C                    -2.26455286     1.29719847    -0.00018482
 C                    -1.07420170     0.59581802     0.00013741
 C                    -1.07645522    -0.80933241    -0.00013425
 C                    -2.26904548    -1.50689365     0.00017583
 C                    -4.75709109     2.78911945     0.00013177
 N                    -3.49935225     3.39171569    -0.00006335
 C                    -2.24354145     2.78510069     0.00011210
 O                    -1.22960037     3.44876046    -0.00003698
 O                    -5.76890901     3.45601315    -0.00004431
 C                    -4.76633758    -2.99083251    -0.00007674
 N                    -3.51052650    -3.59744736     0.00004476
 C                    -2.25278810    -2.99485051    -0.00010605
 O                    -1.24097068    -3.66174520     0.00003272
 O                    -5.78027884    -3.65449204     0.00002466
 H                    -6.86247614     1.16134746    -0.00001710
 H                    -6.86651890    -1.35630551     0.00001223
 H                    -0.14336066     1.15057408    -0.00001329
 H                    -0.14740302    -1.36707872     0.00001366
 H                    -3.49774107     4.40491660     0.00000308
 H                    -3.51213761    -4.61064817    -0.00000265
