    40
 geometry
 C                    -5.80452131    -1.29227235    -0.00023393
 C                    -5.83368898     0.09718811     0.00020858
 C                    -4.65433340     0.80144540    -0.00013614
 C                    -3.41893953     0.10837047     0.00021869
 C                    -3.39920175    -1.32356415    -0.00027026
 C                    -4.63476007    -2.05665930     0.00022518
 C                    -2.20861713     0.84431336    -0.00002944
 C                    -1.00514866     0.17580288     0.00002084
 C                    -0.96840237    -1.21884393    -0.00002221
 C                    -2.13133506    -1.99570986     0.00012248
 C                    -4.71035382     2.28647184    -0.00001964
 N                    -3.47358867     2.91932637    -0.00000407
 C                    -2.21157574     2.32861133    -0.00003066
 O                    -1.20704491     3.00905664     0.00003065
 O                    -5.74401785     2.92203886     0.00003351
 H                    -6.78499305     0.61500577    -0.00003213
 F                    -7.02470842    -1.87449451     0.00001057
 H                    -0.08612356     0.74970523    -0.00000076
 H                    -0.00221868    -1.68993983     0.00000621
 H                    -3.49033530     3.93213252    -0.00003578
 C                    -4.60683882    -3.52627155    -0.00002438
 C                    -3.33897294    -4.19841839    -0.00001708
 C                    -2.10341371    -3.46532353     0.00000415
 C                    -5.76977295    -4.30313467    -0.00001191
 C                    -5.73302959    -5.69778084     0.00000036
 C                    -4.52956232    -6.36629242     0.00004054
 C                    -3.31923753    -5.63035308     0.00000829
 C                    -0.93365368    -4.22971277    -0.00004013
 C                    -0.90448802    -5.61917408     0.00004481
 C                    -2.08384461    -6.32343067     0.00000249
 C                    -2.02782910    -7.80845790    -0.00004082
 N                    -3.26459693    -8.44130905    -0.00000660
 C                    -4.52660785    -7.85058973    -0.00003982
 O                    -5.53114090    -8.53103218     0.00005220
 O                    -0.99416675    -8.44402747     0.00003455
 H                    -6.73595509    -3.83203658     0.00001282
 H                    -6.65205509    -6.27168184    -0.00001478
 F                     0.28653355    -3.64749074    -0.00002510
 H                     0.04681601    -6.13699231    -0.00000874
 H                    -3.24785541    -9.45411504    -0.00003251
