    46
 geometry
 C                    -1.69339784    -0.65443701     0.00003200
 C                    -1.59194723     0.73683951    -0.00002242
 C                    -0.35552982     1.35397081     0.00002728
 C                     0.82626031     0.56307540    -0.00004612
 C                     0.72601959    -0.86332254     0.00006785
 C                    -0.56721295    -1.47498086    -0.00005925
 C                     2.10936507     1.17900274     0.00002281
 C                     3.25016030     0.39345547    -0.00002150
 C                     3.15030807    -0.99560109     0.00002563
 C                     1.91888898    -1.65125817    -0.00005526
 C                    -0.30738222     2.83785648    -0.00000963
 N                     0.98400913     3.36382975     0.00000285
 C                     2.18781298     2.62326858    -0.00000825
 C                    -0.67084980    -2.94153052     0.00002141
 O                    -1.28180995     3.56254481     0.00001268
 N                     3.26258155     3.36363714     0.00000579
 H                    -2.48131611     1.35598765     0.00000411
 H                    -2.68539042    -1.08594025    -0.00000427
 H                     4.21961806     0.87722495    -0.00000147
 H                     4.07103669    -1.56362451    -0.00000981
 C                     1.36687140     4.70636345    -0.00000411
 C                     2.79951390     4.67371582     0.00000658
 C                     3.35585877     5.92659240     0.00000139
 S                     2.10023278     7.12464050    -0.00000488
 C                     0.81193253     5.94714068    -0.00000519
 H                     4.39408643     6.21931644     0.00000812
 H                    -0.22176712     6.24979891    -0.00001144
 C                     1.81662174    -3.11554130     0.00002359
 C                     0.52366986    -3.72628328     0.00000315
 C                     2.94190406    -3.93952809    -0.00000056
 C                     2.83769969    -5.33104436    -0.00001371
 C                     1.59981547    -5.94273786     0.00004196
 C                     0.42350466    -5.15202258    -0.00002873
 C                    -0.85201625    -5.76975384     0.00004289
 C                    -1.99252841    -4.99154560    -0.00001481
 C                    -1.90070453    -3.59863865     0.00000149
 C                    -0.97960007    -7.24745167    -0.00003272
 N                     0.22723537    -7.94269075     0.00000097
 C                     1.51996204    -7.42250949    -0.00002942
 O                     2.48678958    -8.15764832     0.00001734
 O                    -2.04029201    -7.83902073     0.00001705
 H                     0.15698811    -8.95305220    -0.00002558
 H                     3.72515663    -5.95310606     0.00000971
 H                     3.93481122    -3.51012937     0.00000198
 H                    -2.82354883    -3.03399574     0.00000082
 H                    -2.95817142    -5.48360668     0.00000967
