    32
 geometry
 C                    -1.60601467     0.07521680    -0.00001460
 C                    -1.48972026     1.49338998     0.00002223
 C                    -0.28048893     2.11544961     0.00000421
 C                     0.90340226     1.31065620     0.00001079
 C                     0.78550756    -0.13353320    -0.00001313
 C                    -0.51373734    -0.73526983     0.00000504
 C                     2.17696604     1.88693141    -0.00000877
 C                     3.34077413     1.11252031     0.00001189
 C                     3.22322555    -0.33169582    -0.00000965
 C                     1.94948034    -0.90804024     0.00000889
 C                     4.63941349     1.71516259     0.00000166
 C                     5.73215132     0.90551188    -0.00002886
 C                     5.61679934    -0.51274722     0.00000668
 C                     4.40786753    -1.13568494    -0.00001847
 C                    -2.86376836     2.07591541    -0.00001479
 N                    -3.71744341     0.96313378     0.00000448
 C                    -3.05726530    -0.27468846     0.00000454
 C                     7.18290879     1.25685825     0.00002240
 N                     7.84422416     0.01975939     0.00000181
 C                     6.99159709    -1.09392917    -0.00001362
 O                     7.70918979     2.34105812    -0.00001018
 O                    -3.20649000     3.23138594     0.00000089
 O                    -3.58471967    -1.35829793    -0.00000103
 O                     7.33565581    -2.24898305     0.00001806
 H                    -4.72359667     1.04680429     0.00000123
 H                     8.85047757    -0.06266280     0.00000825
 H                    -0.20713674     3.19817108     0.00000232
 H                     2.26460583     2.96945743    -0.00000244
 H                     4.74161752     2.79556994     0.00000111
 H                     4.33549158    -2.21848680    -0.00000109
 H                     1.86181765    -1.99058548     0.00000024
 H                    -0.61696198    -1.81559751    -0.00000005
