    20
 geometry
 C                    -0.13388223    -0.03175158     0.00005939
 C                    -0.01991872     1.36211570    -0.00006682
 C                     1.20905630     2.01016948     0.00004180
 C                     2.31777156     1.17271359    -0.00005953
 C                     2.20380763    -0.22115360     0.00006124
 C                     0.97483284    -0.86920739    -0.00004466
 C                    -1.39861043     1.95045779     0.00003717
 N                    -2.25680020     0.84409155     0.00000231
 C                    -1.59066519    -0.38741582    -0.00003692
 C                     3.77455510     1.52837669     0.00003372
 N                     4.44068913     0.29686862     0.00000168
 C                     3.58249849    -0.80949675    -0.00003226
 O                     4.28737708     2.61691058    -0.00001169
 O                    -1.72621610     3.10826413    -0.00000752
 O                    -2.10348604    -1.47595023     0.00001141
 O                     3.91010270    -1.96730351     0.00001307
 H                    -3.26290649     0.92600927    -0.00000106
 H                     5.44679530     0.21494942    -0.00000202
 H                     1.29548119     3.09075918    -0.00000290
 H                     0.88840807    -1.94979711     0.00000358
