    21
 geometry
 C                    -7.34895230     0.92987316    -0.00000072
 C                    -6.78369112     2.17122895     0.00000242
 C                    -5.36386368     2.09323794    -0.00000430
 C                    -4.87028469     0.79346570     0.00000084
 S                    -6.17010109    -0.36354698     0.00000228
 S                    -4.08002394     3.29564302     0.00000091
 C                    -2.88050717     2.01472301     0.00000277
 C                    -3.45245534     0.74669268     0.00000944
 C                    -1.46348375     1.96947872    -0.00000616
 C                    -0.97357111     0.66754310    -0.00000814
 S                    -2.25262703    -0.53351484    -0.00000056
 S                    -0.18472548     3.17128209     0.00000064
 C                     1.01980259     1.88946218     0.00000000
 C                     0.44436031     0.62379552     0.00000406
 H                    -8.39927127     0.67890437    -0.00000358
 H                    -7.35610937     3.08984619     0.00000003
 C                     2.44171294     1.87675126     0.00000224
 C                     2.92667671     0.60190905    -0.00000027
 S                     1.66778851    -0.61374746    -0.00000159
 H                     3.07159473     2.75696226    -0.00000029
 H                     3.95889154     0.28468008    -0.00000005
