    30
 geometry
 C                    -4.15425993    -0.43364458    -0.00001047
 C                    -3.92154856     0.99026396     0.00001966
 C                    -2.62748545     1.46040260    -0.00001970
 C                    -1.52690473     0.56124056     0.00002084
 C                    -1.78021714    -0.86752143    -0.00002167
 C                    -3.12641777    -1.33545669     0.00001359
 C                    -0.20053298     1.01144920    -0.00000173
 C                     0.88523777     0.13027623    -0.00002252
 C                     0.63162356    -1.29843499     0.00002145
 C                    -0.69457351    -1.74857982     0.00000005
 C                     2.23182758     0.59751694     0.00001119
 C                     3.25925600    -0.30492135    -0.00000860
 C                     3.02576932    -1.72868628     0.00002050
 C                     1.73159426    -2.19812798    -0.00002025
 C                    -5.16348133     1.72793631    -0.00000614
 C                    -6.25457506     0.93407598     0.00000216
 S                    -5.88730119    -0.78693004     0.00000014
 S                     4.99264798     0.04707166     0.00000009
 C                     5.35874643    -1.67429866     0.00000165
 C                     4.26704754    -2.46729157    -0.00000701
 H                    -7.29108604     1.24109659     0.00000145
 H                    -5.21461403     2.81026952     0.00000140
 H                    -2.43512330     2.52947826     0.00000207
 H                    -0.00931165     2.08155336     0.00000015
 H                     2.41899738     1.66679400    -0.00000028
 H                     6.39501993    -1.98220614     0.00000019
 H                     4.31709327    -3.54964953     0.00000174
 H                     1.53856167    -3.26701664     0.00000351
 H                    -0.88576340    -2.81860244     0.00000045
 H                    -3.31284661    -2.40478702    -0.00000389
