    27
 geometry
 C                    -2.32363383     1.23594088     0.00001171
 C                    -0.86821371     1.16523233     0.00000469
 C                    -0.39839098    -0.17550478    -0.00001278
 S                    -1.71998789    -1.35222928    -0.00000188
 C                    -2.92122550    -0.05291681    -0.00000588
 C                     0.05097843     2.21012561    -0.00000793
 C                     1.42191200     1.92871331     0.00001666
 C                     1.85328560     0.57475551    -0.00000088
 C                     0.95319988    -0.48860084     0.00000864
 C                    -3.13709852     2.36505833    -0.00001160
 C                    -4.52891112     2.21798154     0.00001229
 C                    -5.08953173     0.91218851    -0.00000371
 C                    -4.29677833    -0.23346382     0.00000290
 C                     2.53484814     2.84313943    -0.00000786
 C                     3.73522636     2.21897279     0.00000061
 S                     3.60698684     0.47034910     0.00000142
 C                    -5.54799838     3.23600053    -0.00000627
 C                    -6.80321793     2.73110389     0.00000146
 S                    -6.84512775     0.97829389     0.00000121
 H                    -7.73725432     3.27439729     0.00000177
 H                    -4.73623373    -1.22487712    -0.00000334
 H                     1.29455873    -1.51791930     0.00000033
 H                     4.71757752     2.66901946    -0.00000144
 H                    -0.28646369     3.24189263    -0.00000110
 H                    -2.70088897     3.35910994     0.00000180
 H                    -5.33238148     4.29791650     0.00000059
 H                     2.42299436     3.92094048    -0.00000137
