    24
 geometry
 C                    -2.17088957    -0.75090268    -0.00001189
 C                    -2.37293844     0.66126792     0.00001239
 C                    -1.26580864     1.51663450    -0.00000809
 C                     0.00219414     0.95619715     0.00000946
 C                     0.20408169    -0.45596428    -0.00000887
 C                    -0.90295201    -1.31129825     0.00000929
 S                    -3.69620293    -1.65496222     0.00000290
 C                    -4.60170503    -0.14803811    -0.00000196
 C                    -3.77634405     0.95931903    -0.00000045
 S                    -4.71232720     2.42798768    -0.00000232
 C                    -6.19697773     1.50802552    -0.00000089
 C                    -5.99015604     0.15916108     0.00000234
 S                     1.52793693     1.85977623     0.00000014
 C                     2.43309238     0.35249861    -0.00000001
 C                     1.60728500    -0.75447469    -0.00000316
 S                     2.54235440    -2.22365307    -0.00000051
 C                     4.02748421    -1.30451860     0.00000363
 C                     3.82141071     0.04448900    -0.00000082
 H                    -7.14060383     2.03347189     0.00000013
 H                    -6.78972276    -0.57024037     0.00000096
 H                    -0.76899306    -2.38794728    -0.00000247
 H                     4.97076406    -1.83060819    -0.00000046
 H                     4.62141030     0.77341034     0.00000076
 H                    -1.39972254     2.59329880    -0.00000011
