    30
 geometry
 C                    -4.75887436    -0.47416944     0.00005956
 C                    -4.73180781     0.95389911    -0.00005936
 C                    -3.54714271     1.62962153     0.00008037
 C                    -2.30766029     0.91509215    -0.00004649
 C                    -2.33496253    -0.52734830     0.00005475
 C                    -3.60068247    -1.19435024    -0.00007860
 C                    -1.07872889     1.55776115     0.00000858
 C                     0.15347565     0.87667153    -0.00003502
 C                     0.12594378    -0.58207789     0.00003183
 C                    -1.13119054    -1.21606090    -0.00002031
 C                     1.41052528     1.51072536     0.00002812
 C                     2.61430693     0.82210151     0.00002663
 C                     2.58716166    -0.62034177    -0.00002853
 C                     1.35823565    -1.26309926    -0.00002141
 C                     3.87984408     1.48936812    -0.00007385
 C                     5.03817934     0.76945113     0.00005639
 C                     5.01136988    -0.65862251    -0.00005617
 C                     3.82683751    -1.33461313     0.00007783
 F                    -1.18630237    -2.56357260     0.00001413
 F                     1.36240016    -2.61173138    -0.00000966
 H                     3.80169917    -2.41700517    -0.00000593
 H                     3.89522275     2.57191782     0.00000314
 F                     1.46554604     2.85818503     0.00000660
 F                    -1.08280536     2.90633788    -0.00000984
 H                    -3.52167664     2.71198667    -0.00000806
 H                    -5.66745006     1.50321144     0.00000386
 H                    -5.71465608    -0.98765134    -0.00000443
 H                    -3.61638606    -2.27691469     0.00000565
 H                     5.99384672     1.28314809    -0.00000401
 H                     5.94713156    -1.20772993     0.00000420
