    30
 geometry
 C                    -4.72837562    -0.47440175     0.00010281
 C                    -4.70143809     0.95255699    -0.00007372
 C                    -3.51452538     1.61580790     0.00007391
 C                    -2.26979042     0.91765024    -0.00011559
 C                    -2.29711091    -0.53109626     0.00012303
 C                    -3.56725867    -1.18187735    -0.00011629
 C                    -1.05048808     1.57968268     0.00009479
 C                     0.16749375     0.87179630    -0.00009309
 C                     0.14012644    -0.57728790     0.00007121
 C                    -1.10369506    -1.23872611    -0.00006853
 C                     1.41225023     1.52885179     0.00007190
 C                     2.61176090     0.82582824    -0.00005811
 C                     2.58437654    -0.62371758     0.00006370
 C                     1.35915055    -1.28093618    -0.00005254
 C                     3.88374739     1.48487326    -0.00000810
 C                     5.04460335     0.76966107     0.00001150
 C                     5.01761070    -0.65947316     0.00000728
 C                     3.83055613    -1.33035512    -0.00003507
 H                    -1.13050463    -2.32232726     0.00000611
 H                     1.33766724    -2.36714423     0.00000387
 H                     3.81067575    -2.41605751     0.00001349
 H                     3.90496777     2.57054157    -0.00000829
 H                     1.43190255     2.61509856    -0.00000909
 H                    -1.03634694     2.66352914    -0.00000966
 F                    -3.50359415     2.96032499    -0.00001716
 F                    -5.86976463     1.60300272     0.00000908
 F                    -5.92042446    -1.08026398    -0.00002362
 F                    -3.60698102    -2.52587289     0.00003289
 H                     6.00090821     1.28251479     0.00000712
 H                     5.95390054    -1.20800298    -0.00000382
