    30
 geometry
 C                    -4.75242104    -0.47914725    -0.00000335
 C                    -4.72677247     0.94958348     0.00000763
 C                    -3.54203923     1.62481133    -0.00000444
 C                    -2.30258171     0.90895046     0.00000528
 C                    -2.31779333    -0.53996137     0.00000098
 C                    -3.59166620    -1.19481657     0.00000965
 C                    -1.07027774     1.54392717     0.00000054
 C                     0.16293214     0.87133244     0.00001100
 C                     0.11644412    -0.57628973    -0.00001873
 C                    -1.12004824    -1.24626448     0.00000102
 C                     1.39943288     1.54110618     0.00000597
 C                     2.59717260     0.83499361    -0.00001516
 C                     2.58210899    -0.61395890     0.00002231
 C                     1.34973618    -1.24880869    -0.00001768
 C                     3.87102043     1.48980148     0.00001252
 C                     5.03176883     0.77413430    -0.00000486
 C                     5.00626043    -0.65459949     0.00000257
 C                     3.82153830    -1.32987974    -0.00000024
 H                    -1.13366326    -2.32963945     0.00000091
 F                     1.32154249    -2.60385295     0.00000197
 H                     3.79812302    -2.41286725    -0.00000107
 H                     3.89158516     2.57525662     0.00000075
 H                     1.41308648     2.62435458     0.00000053
 F                    -1.04211803     2.89864394    -0.00001159
 H                    -3.51868763     2.70772948    -0.00000393
 H                    -5.66313422     1.49778959     0.00000156
 H                    -5.70823497    -0.99291627    -0.00000301
 H                    -3.61216042    -2.28035789     0.00000127
 H                     5.98758371     1.28790262     0.00000301
 H                     5.94263271    -1.20279727    -0.00000540
