    36
 geometry
 C                    -4.70988695    -1.37787239    -0.00001709
 C                    -4.67448319     0.05869642     0.00001979
 C                    -3.43795629     0.70063466    -0.00001818
 C                    -2.18541824    -0.00131989     0.00003939
 C                    -2.22086874    -1.44068874    -0.00003595
 C                    -3.50649098    -2.07999760     0.00001719
 C                    -0.94503106     0.64007686    -0.00003541
 C                     0.26215844    -0.06182599     0.00003678
 C                     0.22677190    -1.50119801    -0.00004145
 C                    -1.01364840    -2.14262444     0.00002844
 C                     1.54765230     0.57767863    -0.00001348
 C                     2.75113875    -0.12423861     0.00001711
 C                     2.71588859    -1.56080963    -0.00002236
 C                     1.47944659    -2.20296802     0.00001959
 C                    -5.77231299     0.97919944    -0.00000934
 C                    -5.37049174     2.27713043     0.00000025
 S                    -3.63787958     2.44003577     0.00000285
 C                    -5.85170740    -2.24309501     0.00000783
 C                    -5.51440097    -3.55926847     0.00000062
 S                    -3.79187614    -3.80743163    -0.00000112
 S                     1.83269669     2.30515884     0.00000145
 C                     3.55526293     2.05730554    -0.00000042
 C                     3.89280368     0.74120018    -0.00000695
 C                     3.81389056    -2.48109014     0.00001031
 C                     3.41233422    -3.77909936    -0.00000125
 S                     1.67974411    -3.94234030    -0.00000397
 H                    -5.98444878     3.16597942     0.00000262
 H                    -6.81386547     0.68284972    -0.00000082
 H                    -6.87735467    -1.89572312     0.00000051
 H                    -6.17146237    -4.41673870    -0.00000077
 H                     4.02646498    -4.66783128    -0.00000145
 H                     4.85537171    -2.18447656     0.00000266
 H                     4.91853575     0.39407364     0.00000038
 H                     4.21210262     2.91495398     0.00000362
 H                    -0.91808039     1.72545219     0.00000229
 H                    -1.04059945    -3.22800781    -0.00000367
