    20
 geometry
 C                    -3.00755565     0.15749471     0.00000268
 C                    -1.66311015     0.11940609     0.00000350
 S                    -0.66742870     1.60601916    -0.00000264
 C                     0.88304591     0.76328458     0.00000126
 C                     0.84248619    -0.66723402     0.00000317
 S                    -0.75308358    -1.42103608     0.00000098
 S                    -3.91731905     1.69809551     0.00000077
 C                    -5.51299888     0.94458468     0.00000025
 C                    -5.55383824    -0.48592575     0.00000184
 S                    -4.00349035    -1.32894500    -0.00000234
 C                     2.15103456     1.26151934     0.00000057
 C                     2.08012559    -1.23660187    -0.00000151
 C                    -6.75050989     1.51421887    -0.00000079
 C                    -6.82193935    -0.98388774    -0.00000239
 S                     3.32215901    -0.02180419    -0.00000332
 S                    -7.99279673     0.29968703    -0.00000149
 H                    -7.01457297     2.56055388     0.00000090
 H                    -7.14575418    -2.01331405    -0.00000039
 H                     2.47459238     2.29102555    -0.00000146
 H                     2.34445408    -2.28287069     0.00000040
