    22
 geometry
 C                    -2.14576871    -1.07335939    -0.00000376
 C                    -0.80116425    -1.08722840     0.00000523
 S                     0.16752712     0.41299179     0.00000008
 C                     1.73279731    -0.40800230    -0.00000020
 C                     1.71793570    -1.81980764     0.00000037
 S                     0.13571395    -2.60756393     0.00000187
 S                    -3.08334916     0.44651446     0.00000204
 C                    -4.66521447    -0.34206279    -0.00000003
 C                    -4.67941141    -1.75387501     0.00000013
 S                    -3.11376771    -2.57405535    -0.00000051
 N                    -5.77489453     0.36627665     0.00000114
 C                    -6.92321849    -0.33138239     0.00000206
 C                    -6.93702330    -1.71932325    -0.00000278
 N                    -5.80301310    -2.43996942     0.00000054
 N                     2.85684500     0.27730066    -0.00000305
 C                     3.99056889    -0.44382880     0.00000071
 C                     3.97575354    -1.83175921    -0.00000205
 N                     2.82715380    -2.52893061     0.00000200
 H                    -7.84228938     0.24517977     0.00000030
 H                    -7.86749441    -2.27739832    -0.00000284
 H                     4.92132702     0.11365175    -0.00000205
 H                     4.89452658    -2.40890827     0.00000080
