    22
 geometry
 C                    -2.10103252    -0.92168568     0.00000361
 C                    -0.75580910    -0.94972829     0.00000211
 S                     0.22668196     0.55137573     0.00000007
 C                     1.77203829    -0.29195954    -0.00000496
 C                     1.74278339    -1.71055451     0.00000439
 S                     0.16413562    -2.48978904     0.00000215
 S                    -3.01986771     0.61905065     0.00000205
 C                    -4.59899263    -0.15897484    -0.00000322
 C                    -4.62943026    -1.57754440    -0.00000161
 S                    -3.08460390    -2.42206849     0.00000177
 C                     3.08918592     0.10446118    -0.00000336
 N                     3.84861734    -1.04443370    -0.00000090
 C                     3.04239982    -2.16099466     0.00000335
 C                    -5.89817225     0.29262859    -0.00000027
 N                    -6.70537915    -0.82319886     0.00000113
 C                    -5.94696421    -1.97278462    -0.00000105
 H                    -7.71068715    -0.80158622    -0.00000225
 H                     4.85394579    -1.06505224     0.00000021
 H                    -6.30956007     1.28855737     0.00000169
 H                    -6.40128245    -2.94991390    -0.00000121
 H                     3.54255058     1.08202744     0.00000076
 H                     3.45477269    -3.15652198    -0.00000445
