    34
 geometry
 C                     1.41209416    -0.16231905    -0.00000075
 C                     2.74570659    -0.33430681    -0.00000161
 S                     0.64634426     1.44666645    -0.00000125
 C                    -1.01907638     0.86070373    -0.00001928
 C                    -1.19900124    -0.53633977     0.00000899
 S                     0.26371413    -1.52498050     0.00000165
 S                     3.89483209     1.02771627     0.00000433
 C                     5.35705885     0.03819722    -0.00001817
 C                     5.17624224    -1.35873117     0.00001931
 S                     3.51057061    -1.94372180    -0.00000079
 C                     6.63690645     0.60070708     0.00001536
 C                     7.70905710    -0.27377281    -0.00002888
 C                     7.53001194    -1.65639330     0.00002896
 C                     6.27045504    -2.22877889    -0.00002019
 C                     9.17501709     0.01702392     0.00002430
 O                     9.74079148     1.08049282    -0.00001173
 N                     9.78458473    -1.24552273    -0.00000011
 C                     8.87364862    -2.31090046    -0.00002169
 O                     9.15019547    -3.48336410     0.00001130
 C                    -2.11392777     1.72997582     0.00001697
 C                    -3.37310033     1.15668211    -0.00002736
 C                    -3.55119494    -0.22606438     0.00002696
 C                    -2.47843018    -1.09975282    -0.00001294
 C                    -4.71723078     1.81021115     0.00002264
 N                    -5.62738857     0.74416064    -0.00000067
 C                    -5.01694117    -0.51793656    -0.00002184
 O                    -4.99468743     2.98245701    -0.00000539
 O                    -5.58182928    -1.58186767     0.00000715
 H                    -1.98854306     2.80704437     0.00000051
 H                    -2.63038176    -2.17340467    -0.00000106
 H                     6.78967950     1.67424242    -0.00000006
 H                     6.14426520    -3.30575290     0.00000016
 H                    -6.62813151     0.87374696     0.00000308
 H                    10.78521883    -1.37590756     0.00000211
