    40
 geometry
 C                    -6.83292240     1.77036509     0.00000402
 C                    -5.79163301     2.67385404     0.00000080
 C                    -4.50602364     2.08372549     0.00000222
 C                    -6.44345771     0.40900987    -0.00000685
 S                    -4.68510748     0.33141229    -0.00000738
 C                    -3.27645557     2.74776711     0.00000156
 C                    -1.98142066     2.22298270     0.00000187
 C                    -0.76825269     2.95053764    -0.00000352
 S                    -1.61135821     0.50091418    -0.00000310
 C                     0.12788060     0.77077751     0.00000905
 C                     0.36578823     2.16660437    -0.00000447
 C                     1.14531963    -0.19891491    -0.00000191
 C                    -7.34902680    -0.66577048    -0.00000308
 C                    -7.27295441    -2.05862981     0.00000027
 C                     1.22139514    -1.59197378     0.00000215
 C                     0.31591349    -2.66698300     0.00000155
 C                    -6.25561692    -3.02817447     0.00000283
 S                    -4.51641779    -2.75846217     0.00000070
 C                    -6.49372406    -4.42398712     0.00000181
 C                    -5.35974329    -5.20799461     0.00000172
 C                    -4.14645252    -4.48057055    -0.00000650
 C                    -2.85138182    -5.00550038     0.00000177
 C                    -1.62177018    -4.34160874     0.00000139
 S                    -1.44250793    -2.58929260     0.00000465
 C                     0.70518367    -4.02836743    -0.00000411
 C                    -0.33618397    -4.93180920    -0.00000082
 H                    -5.92335061     3.74993343    -0.00000023
 H                    -7.87886961     2.05559768    -0.00000011
 H                    -8.37671319    -0.30744627     0.00000218
 H                    -8.25550696    -2.52680804     0.00000051
 H                    -7.50209588    -4.82218625     0.00000009
 H                    -5.37308758    -6.29200949    -0.00000092
 H                    -2.79149043    -6.09174124     0.00000099
 H                    -0.20421414    -6.00781280    -0.00000036
 H                     1.75104104    -4.31384773    -0.00000069
 H                     2.24914707    -1.95031845     0.00000019
 H                     2.12787375     0.26937496     0.00000068
 H                     1.37396170     2.56521937    -0.00000182
 H                    -0.75475465     4.03453251     0.00000185
 H                    -3.33632019     3.83402131     0.00000104
