    20
 geometry
 C                    -2.05483399    -3.38433787     0.00000273
 C                    -1.99250261    -1.97496516    -0.00000448
 C                    -0.78444980    -1.28839795     0.00000555
 C                     0.35819354    -2.07905479    -0.00000583
 C                     0.29590312    -3.48842971     0.00000354
 C                    -0.91217024    -4.17500169    -0.00000324
 C                     1.77768892    -1.68335138     0.00000597
 C                     1.67508176    -4.00773931    -0.00000166
 N                     2.47220793    -2.87846050    -0.00000118
 S                     2.44726209    -0.18368270    -0.00000303
 S                     2.21005012    -5.56054226     0.00000089
 C                    -3.37161601    -1.45556048     0.00000243
 N                    -4.16882339    -2.58476505    -0.00000316
 C                    -3.47438453    -3.77994107     0.00000219
 S                    -4.14412503    -5.27953583    -0.00000027
 S                    -3.90638753     0.09730946    -0.00000021
 H                    -0.73643688    -0.20577371    -0.00000035
 H                    -0.96018658    -5.25762827    -0.00000044
 H                    -5.17843265    -2.54007205     0.00000024
 H                     3.48182175    -2.92303967     0.00000029
