    34
 geometry
 C                    -3.26377143     1.22124101     0.00006312
 C                    -1.86315542     1.18335319     0.00004059
 C                    -1.47032934    -0.15662281    -0.00007413
 C                    -2.62156369    -0.94528828     0.00002514
 C                    -3.72847329    -0.09553967    -0.00006893
 C                    -4.05469778     2.33897302    -0.00002043
 C                    -3.20650401     3.51577599     0.00000606
 C                    -1.79624433     3.47761077    -0.00000347
 C                    -1.01293738     2.25668483    -0.00005557
 C                     0.38532253     1.83726786     0.00002584
 C                     0.76908271     0.49219973    -0.00003856
 C                    -0.18505666    -0.61559465     0.00004655
 C                    -5.47360921     1.99574978     0.00001157
 C                    -5.92952069     0.67338490    -0.00000326
 C                    -5.03667241    -0.48435647     0.00000601
 C                    -5.14800505    -1.94035377     0.00001756
 C                    -4.03667003    -2.79301573     0.00000160
 C                    -2.65847417    -2.30934425    -0.00000607
 C                    -1.30846845    -2.86680602     0.00005594
 C                    -0.15262966    -2.07547607    -0.00003815
 H                    -6.21144828     2.78954660    -0.00000106
 H                    -7.00521242     0.52445360    -0.00001029
 H                    -6.12897566    -2.40628719     0.00000608
 H                    -4.23377148    -3.86111449    -0.00000880
 H                    -1.16949195    -3.94400885    -0.00001554
 H                     0.80170767    -2.59376965     0.00001508
 H                     1.83515728     0.28540742     0.00000705
 H                     1.16497344     2.59003378    -0.00000371
 C                    -3.62654765     4.95066788    -0.00004114
 N                    -2.44193830     5.69296073     0.00001345
 C                    -1.29922282     4.88772421     0.00003678
 O                    -0.15709822     5.27948915    -0.00000595
 O                    -4.74588911     5.40343583     0.00001773
 H                    -2.41457476     6.70120763    -0.00000108
