    28
 geometry
 C                    -4.61426038    -0.91611387     0.00000352
 C                    -4.57543040     0.49221856    -0.00000215
 C                    -3.36694893     1.15771045     0.00002110
 C                    -2.15416953     0.44190137    -0.00006861
 C                    -2.19400055    -0.99886707     0.00006685
 C                    -3.44419897    -1.64702259    -0.00002255
 N                    -0.96642035     1.16259407     0.00004633
 C                     0.06397717     0.38447863    -0.00009136
 C                     0.02382304    -1.06406306     0.00009639
 N                    -1.04795911    -1.78400550    -0.00005290
 C                     1.56464636     0.34265905     0.00005272
 C                     1.52409661    -1.10587073    -0.00005607
 N                     2.63683297     1.06206570    -0.00002107
 C                     3.78259797     0.27635599    -0.00000789
 C                     3.74205521    -1.16439341     0.00000648
 N                     2.55406014    -1.88449517     0.00001747
 C                     5.03332736     0.92356010    -0.00000303
 C                     6.20287899     0.19175688     0.00001251
 C                     6.16318757    -1.21655043     0.00000282
 C                     4.95425044    -1.88112583    -0.00000518
 H                    -3.31003878     2.24041488     0.00000397
 H                    -5.50271256     1.05543383    -0.00000585
 H                    -5.57100207    -1.42767983     0.00000828
 H                    -3.44640897    -2.73119685    -0.00000092
 H                     4.89623923    -2.96376862    -0.00000203
 H                     7.09009876    -1.78039709     0.00000118
 H                     7.15996954     0.70264457    -0.00000823
 H                     5.03663924     2.00773595     0.00000822
