    26
 geometry
 C                    -4.10725614    -1.36436753    -0.00001570
 C                    -4.06184465     0.08307324     0.00001775
 C                    -2.81417432     0.75334815     0.00002389
 C                    -1.66168741     0.00505624     0.00001503
 C                    -1.70686067    -1.43708225    -0.00001495
 C                    -2.90405902    -2.11163895    -0.00002315
 C                    -0.35814430     0.73749009     0.00000010
 C                     0.89709219    -0.07490981    -0.00001432
 C                     0.85210326    -1.51705369     0.00001665
 C                    -0.45153342    -2.24952129     0.00000053
 C                     2.09412855     0.59982152    -0.00002601
 C                     3.29749627    -0.14707502    -0.00001820
 C                     3.25228716    -1.59452202     0.00001664
 C                     2.00476304    -2.26517941     0.00002542
 N                     4.54119103     0.34826156    -0.00001346
 S                     5.54806386    -0.94194526     0.00000185
 N                     4.46260626    -2.16667322     0.00001323
 N                    -5.27209284     0.65532027     0.00001343
 S                    -6.35771701    -0.56931619    -0.00000037
 N                    -5.35101550    -1.85960289    -0.00001409
 O                    -0.32012219     1.95388778    -0.00000009
 O                    -0.48955426    -3.46591225    -0.00000422
 H                    -2.76110754     1.83458985     0.00001052
 H                    -2.91909005    -3.19407309    -0.00001010
 H                     2.10888762     1.68229329    -0.00001120
 H                     1.95197010    -3.34639911     0.00001081
