    32
 geometry
 C                    -3.99591684    -1.33880032    -0.00000102
 C                    -3.93402514     0.09415545     0.00000280
 N                    -2.74613206     0.73537004    -0.00000770
 C                    -1.65649971    -0.00716373     0.00000678
 C                    -1.71804304    -1.43431430     0.00000538
 N                    -2.86768514    -2.08009330     0.00000809
 C                    -0.34034898     0.73238476     0.00001072
 C                     0.90745007    -0.11753057    -0.00003489
 C                     0.84609271    -1.54468936     0.00003307
 C                    -0.47015406    -2.28429794    -0.00001893
 N                     2.05692320     0.52848591     0.00002727
 C                     3.18526826    -0.21253858    -0.00002673
 C                     3.12371671    -1.64550815     0.00001851
 N                     1.93591390    -2.28700066    -0.00002724
 O                    -0.28861336     1.93633643    -0.00000286
 O                    -0.52189077    -3.48824161     0.00000748
 C                     4.44983081     0.43128916     0.00001447
 C                     5.59600111    -0.32250921    -0.00000658
 C                     5.53510017    -1.74207703    -0.00000311
 C                     4.32867362    -2.39510759     0.00000083
 C                    -5.13864277     0.84425704    -0.00000281
 C                    -6.34531475     0.19173118    -0.00000176
 C                    -6.40665236    -1.22781660     0.00000148
 C                    -5.26077341    -1.98210208    -0.00000684
 H                    -5.06378118     1.92552709     0.00000292
 H                    -7.26873451     0.76135968    -0.00000117
 H                    -7.37576175    -1.71564348     0.00000089
 H                    -5.27942474    -3.06580649     0.00000120
 H                     4.25444246    -3.47642007     0.00000136
 H                     6.45872198    -2.31137230     0.00000113
 H                     6.56492647     0.16569303     0.00000343
 H                     4.46785310     1.51500360    -0.00000618
