    32
 geometry
 C                    -3.92351288    -1.05751951     0.00001744
 C                    -3.90384263     0.34950424    -0.00000324
 C                    -2.71440730     1.02716510     0.00003235
 C                    -1.45802893     0.34098749    -0.00013337
 C                    -1.47516107    -1.10459913     0.00019868
 C                    -2.74788481    -1.76594717    -0.00007431
 C                    -0.20875415     1.01520576     0.00011906
 C                     0.99598433     0.27670519    -0.00019578
 C                     0.97884640    -1.16887687     0.00014004
 C                    -0.27042106    -1.84309334    -0.00012825
 C                     2.26871880     0.93803323     0.00007472
 C                     3.44433869     0.22958924    -0.00002052
 C                     3.42465417    -1.17743492     0.00000420
 C                     2.23520954    -1.85507289    -0.00003409
 C                    -0.13227262     2.51548800    -0.00005662
 N                     1.14327365     3.06229339     0.00004768
 C                     2.36672188     2.41278089    -0.00004449
 O                     3.40673134     3.03918661    -0.00002023
 O                    -1.07945038     3.28019459    -0.00005665
 C                    -2.84587078    -3.24069856     0.00004401
 N                    -1.62241654    -3.89019688    -0.00004585
 C                    -0.34688275    -3.34337597     0.00006280
 O                     0.60030478    -4.10807005     0.00005429
 O                    -3.88587567    -3.86711121     0.00001745
 H                     1.17296882     4.07482505     0.00006515
 H                    -1.65208430    -4.90272906    -0.00006589
 H                    -2.70764155     2.10389981     0.00001641
 H                    -4.83710796     0.90170616    -0.00000651
 H                    -4.85550978    -1.61051957    -0.00000486
 H                     2.22839947    -2.93180709    -0.00001661
 H                     4.35791190    -1.72965057     0.00000672
 H                     4.37634140     0.78257807     0.00000627
