48
50a_H_capped TS90.0
C	-1.8080123802163621	-0.27969341258635794	-1.5843876415714535e-05
C	-2.032948320216362	1.120610487413642	1.3826123584285466e-05
S	-0.5262231802163622	2.047608227413642	-1.0838764157145354e-06
C	0.4011239897836377	0.557290767413642	1.0612358428546461e-07
C	-0.40121683021636234	-0.5576875625863579	1.0661235842854646e-06
C	1.8078914197836378	0.2794693574136421	-8.633876415714534e-06
C	2.033084669783638	-1.120771042586358	8.096123584285465e-06
S	0.5263886597836377	-2.0479337425863577	-9.238764157145353e-07
C	2.9117403797836374	1.145963097413642	1.1716123584285466e-05
C	4.194135589783638	0.6198848774136421	-7.973876415714536e-06
C	4.400363559783638	-0.767915162586358	4.876123584285464e-06
C	3.3241132897836376	-1.646773492586358	-3.2938764157145354e-06
C	-3.3237920702163626	1.6470028174136422	-1.1023876415714535e-05
C	-4.4003172602163625	0.7685060574136421	9.996123584285465e-06
C	-4.1944116002163625	-0.619347522586358	-7.493876415714536e-06
C	-2.9121626002163623	-1.145840142586358	1.0036123584285465e-05
H	-3.4863279902163624	2.719711047413642	-8.138764157145353e-07
H	-5.4110460302163625	1.162805187413642	1.5461235842854646e-06
H	-5.049277420216362	-1.287287642586358	-1.5438764157145354e-06
H	-2.759546780216362	-2.220401992586358	7.261235842854646e-07
H	3.487105329783638	-2.7194132125863577	8.561235842854647e-07
H	5.411214019783638	-1.1619027325863578	-1.7638764157145355e-06
H	5.048824779783638	1.288048447413642	-1.7387641571453538e-07
H	2.7586544597836378	2.220463557413642	1.6123584285464614e-08
C	-0.07581907614837959	-0.528329489897556	6.641471649105777
C	0.11655029332031329	0.8120751461965	6.219859709560678
S	0.2773552925735717	1.9322638758116213	7.5795892488271654
C	0.08647560296484708	0.6024547157340059	8.709275686365396
C	-0.08653367208851015	-0.6028567479220787	8.073493070895674
C	0.07581012339375141	0.5280891113373214	10.141244730188557
C	-0.11659105026819287	-0.8122105258169047	10.563102347087163
S	-0.2773949743122129	-1.9325601884978243	9.203425080142773
C	0.2199379176269784	1.5323395251228957	11.110781843303553
C	0.17185754917978183	1.1972354096608975	12.454913264909127
C	-0.01917302193638406	-0.13354284400236444	12.856230455265377
C	-0.16449469290819854	-1.1460250138300527	11.91576882623462
C	0.16454837328735003	1.146292494754055	4.867320829950539
C	0.019243109981843354	0.13413007827075588	3.9265356974195864
C	-0.1717714654047874	-1.1967502751977275	4.327541454717685
C	-0.21994990930331418	-1.5322756998063696	5.671587028426952
H	0.3121234400416718	2.1744879437891433	4.5540213081503715
H	0.054302054682573965	0.37831869471601576	2.8700380682263678
H	-0.2829742933680451	-1.9714344619683608	3.5762506215739656
H	-0.36798682123131066	-2.5636823899621914	5.975330456808549
H	-0.31206513085811033	-2.174087146619358	12.229510106607856
H	-0.05417075514692972	-0.37741121947004397	13.912804272827447
H	0.28307462709834635	1.9721156478617312	13.205997511757586
H	0.3679775024281635	2.563616964298486	10.806581806553593
