64
107a cofacial 5.0A
C	-5.1958606922099975	-0.4211456900362067	-4.0431634517845716e-05
C	-5.4247299122099975	0.9637542299637932	1.3308365482154285e-05
C	-4.370528102209997	1.8710379299637934	-5.711634517845717e-06
C	-3.900432652209997	-0.924958440036207	2.3748365482154283e-05
C	-3.072259282209997	1.3605051999637932	2.598365482154283e-06
C	-2.8206599322099972	-0.03688051003620685	-3.4016345178457166e-06
C	-1.3821390022099973	-0.20554629003620684	-5.846163451784572e-05
C	-0.8172861522099972	1.1056223099637932	3.348836548215428e-05
N	-1.8605039322099972	2.025583659963793	-7.711634517845716e-06
C	0.5531268877900027	1.3307782599637932	6.778365482154283e-06
C	-0.5530934122099973	-1.3299944500362069	6.737836548215428e-05
C	1.3822687077900029	0.2062990499637931	2.1218365482154285e-05
C	0.8172384777900027	-1.104812400036207	-6.394163451784573e-05
C	2.820834967790003	0.03717479996379325	-2.6711634517845715e-05
C	3.071952217790003	-1.3603305700362067	-4.641634517845717e-06
N	1.860091367790003	-2.0250140600362068	-2.8716345178457166e-06
C	3.9011887177900024	0.9245849499637933	3.873836548215429e-05
C	5.196374397790002	0.4200567299637932	-1.0081634517845717e-05
C	5.424605477790003	-0.9649644200362066	-1.9981634517845717e-05
C	4.3698895277900025	-1.871603250036207	3.9318365482154285e-05
H	-1.7486331722099973	3.024710729963793	-1.1163451784571661e-07
H	1.7478683777900028	-3.024100640036207	1.3238365482154284e-05
H	-4.555904792209997	2.9408430299637933	5.938365482154283e-06
H	-6.444286212209998	1.335988479963793	7.808365482154283e-06
H	-3.730972702209997	-1.997548360036207	3.4836548215428336e-07
H	-6.040273512209998	-1.1023610200362068	6.758365482154283e-06
H	-0.9648034022099973	-2.3344780100362064	-9.731634517845717e-06
H	4.554478937790003	-2.9415476100362072	-2.4551634517845715e-05
H	6.4439494177900025	-1.3378165500362067	2.1088365482154285e-05
H	6.041118237790003	1.100861869963793	-3.6116345178457167e-06
H	3.732554887790003	1.9972929499637933	-1.4241634517845716e-05
H	0.9647953177900027	2.335275159963793	-1.3281634517845716e-05
C	-5.195858034374214	-0.42115150242085525	4.9999595683613975
C	-5.424727254374214	0.9637484175791448	5.000013308361398
C	-4.370525444374214	1.871032117579145	4.999994288361397
C	-3.9004299943742136	-0.9249642524208554	5.000023748361397
C	-3.0722566243742135	1.3604993875791447	5.000002598361397
C	-2.8206572743742138	-0.03688632242085538	4.999996598361397
C	-1.3821363443742138	-0.20555210242085536	4.999941538361397
C	-0.8172834943742138	1.1056164975791447	5.000033488361398
N	-1.8605012743742138	2.0255778475791444	4.999992288361398
C	0.5531295456257862	1.3307724475791447	5.0000067783613975
C	-0.5530907543742138	-1.3300002624208553	5.000067378361398
C	1.3822713656257863	0.20629323757914458	5.000021218361398
C	0.8172411356257862	-1.1048182124208554	4.999936058361397
C	2.8208376256257863	0.03716898757914472	4.999973288361398
C	3.0719548756257864	-1.3603363824208552	4.999995358361398
N	1.8600940256257865	-2.0250198724208555	4.9999971283613975
C	3.901191375625786	0.9245791375791448	5.000038738361398
C	5.196377055625786	0.42005091757914464	4.999989918361398
C	5.424608135625786	-0.9649702324208551	4.999980018361398
C	4.369892185625786	-1.8716090624208555	5.000039318361398
H	-1.7486305143742138	3.0247049175791445	4.999999888361398
H	1.7478710356257863	-3.0241064524208556	5.000013238361397
H	-4.555902134374214	2.9408372175791446	5.000005938361397
H	-6.4442835543742145	1.3359826675791446	5.0000078083613975
H	-3.7309700443742138	-1.9975541724208554	5.0000003483613975
H	-6.0402708543742145	-1.1023668324208553	5.000006758361398
H	-0.9648007443742138	-2.334483822420855	4.9999902683613975
H	4.554481595625786	-2.941553422420856	4.999975448361398
H	6.443952075625786	-1.3378223624208552	5.000021088361398
H	6.041120895625786	1.1008560575791446	4.999996388361398
H	3.7325575456257867	1.9972871375791448	4.999985758361397
H	0.9647979756257862	2.3352693475791444	4.999986718361398
