64
107a PD long
C	-5.1958606922099975	-0.4211456900362067	-4.0431634517845716e-05
C	-5.4247299122099975	0.9637542299637932	1.3308365482154285e-05
C	-4.370528102209997	1.8710379299637934	-5.711634517845717e-06
C	-3.900432652209997	-0.924958440036207	2.3748365482154283e-05
C	-3.072259282209997	1.3605051999637932	2.598365482154283e-06
C	-2.8206599322099972	-0.03688051003620685	-3.4016345178457166e-06
C	-1.3821390022099973	-0.20554629003620684	-5.846163451784572e-05
C	-0.8172861522099972	1.1056223099637932	3.348836548215428e-05
N	-1.8605039322099972	2.025583659963793	-7.711634517845716e-06
C	0.5531268877900027	1.3307782599637932	6.778365482154283e-06
C	-0.5530934122099973	-1.3299944500362069	6.737836548215428e-05
C	1.3822687077900029	0.2062990499637931	2.1218365482154285e-05
C	0.8172384777900027	-1.104812400036207	-6.394163451784573e-05
C	2.820834967790003	0.03717479996379325	-2.6711634517845715e-05
C	3.071952217790003	-1.3603305700362067	-4.641634517845717e-06
N	1.860091367790003	-2.0250140600362068	-2.8716345178457166e-06
C	3.9011887177900024	0.9245849499637933	3.873836548215429e-05
C	5.196374397790002	0.4200567299637932	-1.0081634517845717e-05
C	5.424605477790003	-0.9649644200362066	-1.9981634517845717e-05
C	4.3698895277900025	-1.871603250036207	3.9318365482154285e-05
H	-1.7486331722099973	3.024710729963793	-1.1163451784571661e-07
H	1.7478683777900028	-3.024100640036207	1.3238365482154284e-05
H	-4.555904792209997	2.9408430299637933	5.938365482154283e-06
H	-6.444286212209998	1.335988479963793	7.808365482154283e-06
H	-3.730972702209997	-1.997548360036207	3.4836548215428336e-07
H	-6.040273512209998	-1.1023610200362068	6.758365482154283e-06
H	-0.9648034022099973	-2.3344780100362064	-9.731634517845717e-06
H	4.554478937790003	-2.9415476100362072	-2.4551634517845715e-05
H	6.4439494177900025	-1.3378165500362067	2.1088365482154285e-05
H	6.041118237790003	1.100861869963793	-3.6116345178457167e-06
H	3.732554887790003	1.9972929499637933	-1.4241634517845716e-05
H	0.9647953177900027	2.335275159963793	-1.3281634517845716e-05
C	-1.4042378763102865	-1.0043938405701942	3.499956874853663
C	-1.6331070963102865	0.38050607942980574	3.500010614853663
C	-0.5789052863102861	1.2877897794298059	3.499991594853663
C	-0.10880983631028608	-1.5082065905701945	3.500021054853663
C	0.719363533689714	0.7772570494298057	3.499999904853663
C	0.9709628836897137	-0.6201286605701943	3.499993904853663
C	2.409483813689713	-0.7887944405701943	3.499938844853663
C	2.9743366636897135	0.5223741594298057	3.500030794853663
N	1.9311188836897137	1.4423355094298056	3.499989594853663
C	4.344749703689714	0.7475301094298057	3.500004084853663
C	3.2385294036897134	-1.9132426005701944	3.500064684853663
C	5.173891523689714	-0.3769491005701944	3.500018524853663
C	4.6088612936897135	-1.6880605505701944	3.499933364853663
C	6.612457783689714	-0.5460733505701942	3.499970594853663
C	6.863575033689714	-1.9435787205701942	3.499992664853663
N	5.651714183689714	-2.608262210570194	3.499994434853663
C	7.692811533689714	0.34133679942980577	3.500036044853663
C	8.987997213689713	-0.16319142057019434	3.499987224853663
C	9.216228293689714	-1.5482125705701941	3.499977324853663
C	8.161512343689713	-2.4548514005701945	3.500036624853663
H	2.0429896436897135	2.441462579429806	3.499997194853663
H	5.539491193689714	-3.607348790570194	3.500010544853663
H	-0.7642819763102862	2.357594879429806	3.500003244853663
H	-2.6526633963102872	0.7527403294298056	3.500005114853663
H	0.060650113689713715	-2.5807965105701944	3.499997654853663
H	-2.2486506963102872	-1.6856091705701943	3.500004064853663
H	2.8268194136897136	-2.9177261605701936	3.499987574853663
H	8.346101753689712	-3.5247957605701945	3.499972754853663
H	10.235572233689712	-1.9210647005701942	3.500018394853663
H	9.832741053689713	0.5176137194298056	3.499993694853663
H	7.524177703689714	1.4140447994298058	3.499983064853663
H	4.756418133689714	1.7520270094298056	3.499984024853663
