64
107a TL45.0
C	-5.1958606922099975	-0.4211456900362067	-4.0431634517845716e-05
C	-5.4247299122099975	0.9637542299637932	1.3308365482154285e-05
C	-4.370528102209997	1.8710379299637934	-5.711634517845717e-06
C	-3.900432652209997	-0.924958440036207	2.3748365482154283e-05
C	-3.072259282209997	1.3605051999637932	2.598365482154283e-06
C	-2.8206599322099972	-0.03688051003620685	-3.4016345178457166e-06
C	-1.3821390022099973	-0.20554629003620684	-5.846163451784572e-05
C	-0.8172861522099972	1.1056223099637932	3.348836548215428e-05
N	-1.8605039322099972	2.025583659963793	-7.711634517845716e-06
C	0.5531268877900027	1.3307782599637932	6.778365482154283e-06
C	-0.5530934122099973	-1.3299944500362069	6.737836548215428e-05
C	1.3822687077900029	0.2062990499637931	2.1218365482154285e-05
C	0.8172384777900027	-1.104812400036207	-6.394163451784573e-05
C	2.820834967790003	0.03717479996379325	-2.6711634517845715e-05
C	3.071952217790003	-1.3603305700362067	-4.641634517845717e-06
N	1.860091367790003	-2.0250140600362068	-2.8716345178457166e-06
C	3.9011887177900024	0.9245849499637933	3.873836548215429e-05
C	5.196374397790002	0.4200567299637932	-1.0081634517845717e-05
C	5.424605477790003	-0.9649644200362066	-1.9981634517845717e-05
C	4.3698895277900025	-1.871603250036207	3.9318365482154285e-05
H	-1.7486331722099973	3.024710729963793	-1.1163451784571661e-07
H	1.7478683777900028	-3.024100640036207	1.3238365482154284e-05
H	-4.555904792209997	2.9408430299637933	5.938365482154283e-06
H	-6.444286212209998	1.335988479963793	7.808365482154283e-06
H	-3.730972702209997	-1.997548360036207	3.4836548215428336e-07
H	-6.040273512209998	-1.1023610200362068	6.758365482154283e-06
H	-0.9648034022099973	-2.3344780100362064	-9.731634517845717e-06
H	4.554478937790003	-2.9415476100362072	-2.4551634517845715e-05
H	6.4439494177900025	-1.3378165500362067	2.1088365482154285e-05
H	6.041118237790003	1.100861869963793	-3.6116345178457167e-06
H	3.732554887790003	1.9972929499637933	-1.4241634517845716e-05
H	0.9647953177900027	2.335275159963793	-1.3281634517845716e-05
C	-5.142145980375828	-0.07192624687404921	-5.32636090888525
C	-5.430423999885601	0.9267576842096873	-4.383039595424105
C	-4.423288906612939	1.5280611467834568	-3.6356319297889517
C	-3.8333212718650254	-0.488647393237399	-5.539157681805108
C	-3.111340883241647	1.1064567761016133	-3.852859313073446
C	-2.7999422270054097	0.09782573563728907	-4.802429403469488
C	-1.3637311438373598	-0.0858563351580662	-4.765697457206547
C	-0.8604198052417897	0.8252315383776231	-3.788549345930044
N	-1.9370598701660215	1.5279149603615343	-3.2577815975048807
C	0.49080847775661574	0.9256675818613157	-3.4838825917043974
C	-0.49082245416818754	-0.9251509379993178	-5.4623431776435085
C	1.3638260886813427	0.08642443371185249	-4.180618438997409
C	0.8603353257251053	-0.8246195801286167	-5.1577408770011495
C	2.8001016067190254	-0.09759190645832325	-4.144196996388765
C	3.1110236756914933	-1.106306768422333	-5.09388269555049
N	1.936621411470665	-1.527472380792721	-5.688701752402322
C	3.834077183288997	0.48831421972989975	-3.407807478471997
C	5.142704810241818	0.07117195700476031	-3.6212102419527037
C	5.430349632643487	-0.9276010699851188	-4.564653885540536
C	4.4226711677136645	-1.5284496968868413	-5.311637650847156
H	-1.869921118760779	2.236239706528763	-2.5474729244377423
H	1.8691284837209239	-2.235769289906353	-6.399003228765713
H	-4.6544963031896485	2.299921298801419	-2.907880244932011
H	-6.459459930850755	1.2373649515726768	-4.232502012020561
H	-3.617799025946677	-1.2617868054561006	-6.270575088267109
H	-5.9508652032360825	-0.5210978716605417	-5.893198988672791
H	-0.8555272304296857	-1.6240540917492674	-6.208678994801207
H	4.6531083574676995	-2.3003381168384363	-6.039608224828158
H	6.45919801161507	-1.2386649404270835	-4.71562097513365
H	5.951765096616725	0.5199986850714635	-3.0545853086025043
H	3.6193784786962415	1.2615549473075505	-2.6762727437172305
H	0.8554818346302914	1.6246499987283487	-2.737610628900029
