64
107a cofacial 4.5A
C	-5.1958606922099975	-0.4211456900362067	-4.0431634517845716e-05
C	-5.4247299122099975	0.9637542299637932	1.3308365482154285e-05
C	-4.370528102209997	1.8710379299637934	-5.711634517845717e-06
C	-3.900432652209997	-0.924958440036207	2.3748365482154283e-05
C	-3.072259282209997	1.3605051999637932	2.598365482154283e-06
C	-2.8206599322099972	-0.03688051003620685	-3.4016345178457166e-06
C	-1.3821390022099973	-0.20554629003620684	-5.846163451784572e-05
C	-0.8172861522099972	1.1056223099637932	3.348836548215428e-05
N	-1.8605039322099972	2.025583659963793	-7.711634517845716e-06
C	0.5531268877900027	1.3307782599637932	6.778365482154283e-06
C	-0.5530934122099973	-1.3299944500362069	6.737836548215428e-05
C	1.3822687077900029	0.2062990499637931	2.1218365482154285e-05
C	0.8172384777900027	-1.104812400036207	-6.394163451784573e-05
C	2.820834967790003	0.03717479996379325	-2.6711634517845715e-05
C	3.071952217790003	-1.3603305700362067	-4.641634517845717e-06
N	1.860091367790003	-2.0250140600362068	-2.8716345178457166e-06
C	3.9011887177900024	0.9245849499637933	3.873836548215429e-05
C	5.196374397790002	0.4200567299637932	-1.0081634517845717e-05
C	5.424605477790003	-0.9649644200362066	-1.9981634517845717e-05
C	4.3698895277900025	-1.871603250036207	3.9318365482154285e-05
H	-1.7486331722099973	3.024710729963793	-1.1163451784571661e-07
H	1.7478683777900028	-3.024100640036207	1.3238365482154284e-05
H	-4.555904792209997	2.9408430299637933	5.938365482154283e-06
H	-6.444286212209998	1.335988479963793	7.808365482154283e-06
H	-3.730972702209997	-1.997548360036207	3.4836548215428336e-07
H	-6.040273512209998	-1.1023610200362068	6.758365482154283e-06
H	-0.9648034022099973	-2.3344780100362064	-9.731634517845717e-06
H	4.554478937790003	-2.9415476100362072	-2.4551634517845715e-05
H	6.4439494177900025	-1.3378165500362067	2.1088365482154285e-05
H	6.041118237790003	1.100861869963793	-3.6116345178457167e-06
H	3.732554887790003	1.9972929499637933	-1.4241634517845716e-05
H	0.9647953177900027	2.335275159963793	-1.3281634517845716e-05
C	-5.195858300157792	-0.4211509211823904	4.499959568361806
C	-5.424727520157792	0.9637489988176096	4.500013308361806
C	-4.370525710157792	1.8710326988176096	4.499994288361806
C	-3.900430260157792	-0.9249636711823906	4.500023748361806
C	-3.072256890157792	1.3604999688176094	4.500002598361806
C	-2.820657540157792	-0.036885741182390526	4.499996598361806
C	-1.382136610157792	-0.2055515211823905	4.4999415383618055
C	-0.817283760157792	1.1056170788176094	4.500033488361806
N	-1.860501540157792	2.0255784288176093	4.499992288361806
C	0.5531292798422079	1.3307730288176094	4.500006778361806
C	-0.5530910201577921	-1.3299996811823906	4.500067378361806
C	1.382271099842208	0.20629381881760944	4.500021218361806
C	0.8172408698422079	-1.1048176311823907	4.499936058361806
C	2.820837359842208	0.03716956881760957	4.499973288361806
C	3.071954609842208	-1.3603358011823905	4.499995358361806
N	1.8600937598422083	-2.0250192911823905	4.499997128361806
C	3.9011911098422076	0.9245797188176096	4.500038738361806
C	5.1963767898422075	0.4200514988176095	4.499989918361806
C	5.424607869842208	-0.9649696511823903	4.499980018361806
C	4.369891919842208	-1.8716084811823908	4.500039318361806
H	-1.748630780157792	3.0247054988176094	4.499999888361806
H	1.747870769842208	-3.0241058711823907	4.500013238361806
H	-4.555902400157792	2.9408377988176095	4.500005938361806
H	-6.444283820157793	1.3359832488176093	4.500007808361806
H	-3.730970310157792	-1.9975535911823907	4.500000348361806
H	-6.040271120157793	-1.1023662511823906	4.500006758361806
H	-0.9648010101577921	-2.33448324118239	4.499990268361806
H	4.554481329842208	-2.941552841182391	4.499975448361806
H	6.443951809842208	-1.3378217811823905	4.500021088361806
H	6.041120629842208	1.1008566388176093	4.499996388361806
H	3.7325572798422084	1.9972877188176095	4.499985758361806
H	0.9647977098422079	2.3352699288176093	4.499986718361806
