64
107a PD short
C	-5.1958606922099975	-0.4211456900362067	-4.0431634517845716e-05
C	-5.4247299122099975	0.9637542299637932	1.3308365482154285e-05
C	-4.370528102209997	1.8710379299637934	-5.711634517845717e-06
C	-3.900432652209997	-0.924958440036207	2.3748365482154283e-05
C	-3.072259282209997	1.3605051999637932	2.598365482154283e-06
C	-2.8206599322099972	-0.03688051003620685	-3.4016345178457166e-06
C	-1.3821390022099973	-0.20554629003620684	-5.846163451784572e-05
C	-0.8172861522099972	1.1056223099637932	3.348836548215428e-05
N	-1.8605039322099972	2.025583659963793	-7.711634517845716e-06
C	0.5531268877900027	1.3307782599637932	6.778365482154283e-06
C	-0.5530934122099973	-1.3299944500362069	6.737836548215428e-05
C	1.3822687077900029	0.2062990499637931	2.1218365482154285e-05
C	0.8172384777900027	-1.104812400036207	-6.394163451784573e-05
C	2.820834967790003	0.03717479996379325	-2.6711634517845715e-05
C	3.071952217790003	-1.3603305700362067	-4.641634517845717e-06
N	1.860091367790003	-2.0250140600362068	-2.8716345178457166e-06
C	3.9011887177900024	0.9245849499637933	3.873836548215429e-05
C	5.196374397790002	0.4200567299637932	-1.0081634517845717e-05
C	5.424605477790003	-0.9649644200362066	-1.9981634517845717e-05
C	4.3698895277900025	-1.871603250036207	3.9318365482154285e-05
H	-1.7486331722099973	3.024710729963793	-1.1163451784571661e-07
H	1.7478683777900028	-3.024100640036207	1.3238365482154284e-05
H	-4.555904792209997	2.9408430299637933	5.938365482154283e-06
H	-6.444286212209998	1.335988479963793	7.808365482154283e-06
H	-3.730972702209997	-1.997548360036207	3.4836548215428336e-07
H	-6.040273512209998	-1.1023610200362068	6.758365482154283e-06
H	-0.9648034022099973	-2.3344780100362064	-9.731634517845717e-06
H	4.554478937790003	-2.9415476100362072	-2.4551634517845715e-05
H	6.4439494177900025	-1.3378165500362067	2.1088365482154285e-05
H	6.041118237790003	1.100861869963793	-3.6116345178457167e-06
H	3.732554887790003	1.9972929499637933	-1.4241634517845716e-05
H	0.9647953177900027	2.335275159963793	-1.3281634517845716e-05
C	-5.486491768928356	-2.3105301558549036	3.499957526492424
C	-5.715360988928356	-0.9256302358549037	3.500011266492424
C	-4.661159178928355	-0.01834653585490355	3.499992246492424
C	-4.191063728928356	-2.814342905854904	3.500021706492424
C	-3.362890358928356	-0.5288792658549037	3.500000556492424
C	-3.1112910089283563	-1.9262649758549037	3.499994556492424
C	-1.672770078928356	-2.0949307558549037	3.499939496492424
C	-1.1079172289283559	-0.7837621558549037	3.5000314464924243
N	-2.1511350089283563	0.13619919414509615	3.499990246492424
C	0.26249581107164405	-0.5586062058549037	3.500004736492424
C	-0.8437244889283559	-3.2193789158549038	3.500065336492424
C	1.0916376310716442	-1.6830854158549038	3.5000191764924242
C	0.5266074010716439	-2.994196865854904	3.499934016492424
C	2.530203891071644	-1.8522096658549037	3.499971246492424
C	2.781321141071644	-3.2497150358549036	3.499993316492424
N	1.5694602910716444	-3.914398525854904	3.499995086492424
C	3.6105576410716433	-0.9647995158549036	3.500036696492424
C	4.905743321071644	-1.4693277358549037	3.499987876492424
C	5.133974401071645	-2.8543488858549035	3.499977976492424
C	4.079258451071644	-3.760987715854904	3.500037276492424
H	-2.0392642489283563	1.1353262641450963	3.499997846492424
H	1.4572373010716442	-4.913485105854904	3.500011196492424
H	-4.846535868928355	1.0514585641450964	3.5000038964924243
H	-6.734917288928356	-0.5533959858549038	3.500005766492424
H	-4.021603778928355	-3.886932825854904	3.499998306492424
H	-6.330904588928356	-2.9917454858549037	3.500004716492424
H	-1.255434478928356	-4.2238624758549035	3.499988226492424
H	4.263847861071644	-4.830932075854904	3.499973406492424
H	6.153318341071644	-3.2272010158549036	3.500019046492424
H	5.750487161071645	-0.7885225958549038	3.499994346492424
H	3.441923811071644	0.10790848414509634	3.499983716492424
H	0.674164241071644	0.4458906941450962	3.499984676492424
