64
107a cofacial 4.0A
C	-5.1958606922099975	-0.4211456900362067	-4.0431634517845716e-05
C	-5.4247299122099975	0.9637542299637932	1.3308365482154285e-05
C	-4.370528102209997	1.8710379299637934	-5.711634517845717e-06
C	-3.900432652209997	-0.924958440036207	2.3748365482154283e-05
C	-3.072259282209997	1.3605051999637932	2.598365482154283e-06
C	-2.8206599322099972	-0.03688051003620685	-3.4016345178457166e-06
C	-1.3821390022099973	-0.20554629003620684	-5.846163451784572e-05
C	-0.8172861522099972	1.1056223099637932	3.348836548215428e-05
N	-1.8605039322099972	2.025583659963793	-7.711634517845716e-06
C	0.5531268877900027	1.3307782599637932	6.778365482154283e-06
C	-0.5530934122099973	-1.3299944500362069	6.737836548215428e-05
C	1.3822687077900029	0.2062990499637931	2.1218365482154285e-05
C	0.8172384777900027	-1.104812400036207	-6.394163451784573e-05
C	2.820834967790003	0.03717479996379325	-2.6711634517845715e-05
C	3.071952217790003	-1.3603305700362067	-4.641634517845717e-06
N	1.860091367790003	-2.0250140600362068	-2.8716345178457166e-06
C	3.9011887177900024	0.9245849499637933	3.873836548215429e-05
C	5.196374397790002	0.4200567299637932	-1.0081634517845717e-05
C	5.424605477790003	-0.9649644200362066	-1.9981634517845717e-05
C	4.3698895277900025	-1.871603250036207	3.9318365482154285e-05
H	-1.7486331722099973	3.024710729963793	-1.1163451784571661e-07
H	1.7478683777900028	-3.024100640036207	1.3238365482154284e-05
H	-4.555904792209997	2.9408430299637933	5.938365482154283e-06
H	-6.444286212209998	1.335988479963793	7.808365482154283e-06
H	-3.730972702209997	-1.997548360036207	3.4836548215428336e-07
H	-6.040273512209998	-1.1023610200362068	6.758365482154283e-06
H	-0.9648034022099973	-2.3344780100362064	-9.731634517845717e-06
H	4.554478937790003	-2.9415476100362072	-2.4551634517845715e-05
H	6.4439494177900025	-1.3378165500362067	2.1088365482154285e-05
H	6.041118237790003	1.100861869963793	-3.6116345178457167e-06
H	3.732554887790003	1.9972929499637933	-1.4241634517845716e-05
H	0.9647953177900027	2.335275159963793	-1.3281634517845716e-05
C	-5.1958585659413705	-0.42115033994392553	3.9999595683622147
C	-5.4247277859413705	0.9637495800560744	4.000013308362215
C	-4.37052597594137	1.8710332800560745	3.9999942883622146
C	-3.90043052594137	-0.9249630899439258	4.0000237483622145
C	-3.07225715594137	1.3605005500560743	4.000002598362214
C	-2.8206578059413703	-0.036885159943925674	3.9999965983622143
C	-1.3821368759413706	-0.20555093994392565	3.9999415383622146
C	-0.8172840259413704	1.1056176600560743	4.000033488362215
N	-1.8605018059413705	2.025579010056074	3.9999922883622148
C	0.5531290140586296	1.3307736100560743	4.000006778362215
C	-0.5530912859413705	-1.3299990999439257	4.000067378362215
C	1.3822708340586296	0.2062944000560743	4.000021218362215
C	0.8172406040586295	-1.1048170499439258	3.9999360583622146
C	2.82083709405863	0.03717015005607442	3.9999732883622143
C	3.07195434405863	-1.3603352199439256	3.9999953583622148
N	1.8600934940586298	-2.0250187099439256	3.9999971283622147
C	3.9011908440586294	0.9245803000560744	4.000038738362215
C	5.196376524058629	0.42005208005607436	3.9999899183622145
C	5.42460760405863	-0.9649690699439255	3.9999800183622147
C	4.3698916540586294	-1.8716078999439258	4.000039318362215
H	-1.7486310459413705	3.0247060800560743	3.9999998883622148
H	1.7478705040586295	-3.024105289943926	4.0000132383622145
H	-4.55590266594137	2.9408383800560745	4.000005938362214
H	-6.444284085941371	1.3359838300560742	4.000007808362215
H	-3.7309705759413703	-1.9975530099439258	4.000000348362215
H	-6.040271385941371	-1.1023656699439257	4.000006758362215
H	-0.9648012759413704	-2.3344826599439252	3.9999902683622146
H	4.5544810640586295	-2.941552259943926	3.9999754483622145
H	6.4439515440586295	-1.3378211999439256	4.000021088362215
H	6.04112036405863	1.1008572200560742	3.9999963883622147
H	3.73255701405863	1.9972883000560744	3.9999857583622145
H	0.9647974440586295	2.3352705100560742	3.9999867183622144
