60
129h PD long+short
C	-1.2734012137372737	-0.33755370542705276	3.398834750979689e-06
C	-0.8392744437372739	1.0042699445729473	-6.52116524902031e-06
N	0.4359555762627263	1.3787172245729473	-1.481165249020311e-06
C	1.2734117762627264	0.33765711457294734	-5.02116524902031e-06
C	0.8392661962627262	-1.0041649454270527	-7.5411652490203105e-06
N	-0.4359538537372738	-1.3786125854270526	-6.3911652490203105e-06
C	-2.059400703737274	1.9052903945729474	1.878834750979689e-06
C	-3.2197798537372737	0.9568658045729473	2.3268834750979692e-05
O	-2.0830779337372736	3.1105799445729474	-1.1591165249020312e-05
C	-2.7468764937372736	-0.36907624542705264	8.878834750979689e-06
C	2.0593377662627264	-1.9052244754270529	9.468834750979688e-06
C	3.219741606262726	-0.9568559654270528	1.2278834750979689e-05
O	2.0829551362627265	-3.1105170354270526	-1.3381165249020311e-05
C	2.7469088062627263	0.36911719457294734	2.869883475097969e-05
C	3.630093686262726	1.4377164345729474	-2.260116524902031e-05
C	5.001505066262727	1.1564554245729473	3.108834750979689e-06
C	5.471469056262726	-0.1587217354270527	1.148883475097969e-05
C	4.577029446262726	-1.2342509154270527	-7.78116524902031e-06
C	-4.577096253737274	1.2341466145729474	-1.3901165249020311e-05
C	-5.471445703737274	0.15853721457294734	1.2768834750979689e-05
C	-5.001389023737273	-1.1566071454270526	3.908834750979689e-06
C	-3.6299594937372737	-1.4377544854270528	-1.457116524902031e-05
H	-4.926526953737273	2.2612330845729476	6.728834750979689e-06
H	-6.540078233737274	0.34491843457294735	2.2888347509796894e-06
H	-5.712705243737274	-1.9760534954270526	-6.201165249020311e-06
H	-3.264615973737273	-2.4585219554270528	5.058834750979689e-06
H	4.926352196262727	-2.2613734954270526	7.00883475097969e-06
H	6.540085056262726	-0.34520137542705265	-1.651165249020311e-06
H	5.7128797162627265	1.9758511345729473	-3.5911652490203106e-06
H	3.264863696262726	2.4585239145729476	5.07883475097969e-06
C	2.3292011161347292	-2.9196404098007354	3.5000033751162984
C	2.763327886134729	-1.5778167598007353	3.4999934551162983
N	4.038557906134729	-1.2033694798007353	3.4999984951162983
C	4.876014106134729	-2.2444295898007356	3.499994955116298
C	4.441868526134729	-3.5862516498007353	3.4999924351162983
N	3.1666484761347293	-3.9606992898007354	3.4999935851162984
C	1.5432016261347292	-0.6767963098007354	3.5000018551162984
C	0.38282247613472936	-1.6252208998007351	3.500023245116298
O	1.5195243961347296	0.5284932401992647	3.499988385116298
C	0.8557258361347294	-2.9511629498007355	3.5000088551162984
C	5.661940096134729	-4.487311179800735	3.5000094451162984
C	6.822343936134729	-3.538942669800736	3.500012255116298
O	5.685557466134729	-5.692603739800735	3.4999865951162983
C	6.349511136134729	-2.2129695098007356	3.5000286751162983
C	7.232696016134729	-1.1443702698007352	3.4999773751162984
C	8.604107396134731	-1.4256312798007353	3.5000030851162984
C	9.07407138613473	-2.7408084398007353	3.500011465116298
C	8.179631776134729	-3.8163376198007355	3.4999921951162984
C	-0.9744939238652709	-1.3479400898007352	3.4999860751162983
C	-1.8688433738652708	-2.4235494898007355	3.5000127451162983
C	-1.39878669386527	-3.7386938498007356	3.500003885116298
C	-0.0273571638652706	-4.019841189800736	3.4999854051162984
H	-1.32392462386527	-0.3208536198007351	3.500006705116298
H	-2.937475903865271	-2.2371682698007356	3.500002265116298
H	-2.1101029138652705	-4.558140199800735	3.499993775116298
H	0.33798635613473	-5.040608659800735	3.500005035116298
H	8.528954526134731	-4.843460199800735	3.5000069851162983
H	10.14268738613473	-2.9272880798007352	3.499998325116298
H	9.315482046134731	-0.6062355698007355	3.4999963851162983
H	6.867466026134729	-0.12356278980073508	3.5000050551162984
