60
129h TL45.0
C	-1.2734012137372737	-0.33755370542705276	3.398834750979689e-06
C	-0.8392744437372739	1.0042699445729473	-6.52116524902031e-06
N	0.4359555762627263	1.3787172245729473	-1.481165249020311e-06
C	1.2734117762627264	0.33765711457294734	-5.02116524902031e-06
C	0.8392661962627262	-1.0041649454270527	-7.5411652490203105e-06
N	-0.4359538537372738	-1.3786125854270526	-6.3911652490203105e-06
C	-2.059400703737274	1.9052903945729474	1.878834750979689e-06
C	-3.2197798537372737	0.9568658045729473	2.3268834750979692e-05
O	-2.0830779337372736	3.1105799445729474	-1.1591165249020312e-05
C	-2.7468764937372736	-0.36907624542705264	8.878834750979689e-06
C	2.0593377662627264	-1.9052244754270529	9.468834750979688e-06
C	3.219741606262726	-0.9568559654270528	1.2278834750979689e-05
O	2.0829551362627265	-3.1105170354270526	-1.3381165249020311e-05
C	2.7469088062627263	0.36911719457294734	2.869883475097969e-05
C	3.630093686262726	1.4377164345729474	-2.260116524902031e-05
C	5.001505066262727	1.1564554245729473	3.108834750979689e-06
C	5.471469056262726	-0.1587217354270527	1.148883475097969e-05
C	4.577029446262726	-1.2342509154270527	-7.78116524902031e-06
C	-4.577096253737274	1.2341466145729474	-1.3901165249020311e-05
C	-5.471445703737274	0.15853721457294734	1.2768834750979689e-05
C	-5.001389023737273	-1.1566071454270526	3.908834750979689e-06
C	-3.6299594937372737	-1.4377544854270528	-1.457116524902031e-05
H	-4.926526953737273	2.2612330845729476	6.728834750979689e-06
H	-6.540078233737274	0.34491843457294735	2.2888347509796894e-06
H	-5.712705243737274	-1.9760534954270526	-6.201165249020311e-06
H	-3.264615973737273	-2.4585219554270528	5.058834750979689e-06
H	4.926352196262727	-2.2613734954270526	7.00883475097969e-06
H	6.540085056262726	-0.34520137542705265	-1.651165249020311e-06
H	5.7128797162627265	1.9758511345729473	-3.5911652490203106e-06
H	3.264863696262726	2.4585239145729476	5.07883475097969e-06
C	-1.2613842489222553	-0.20577351907941985	-5.263320271053609
C	-0.8638487922675111	0.7347877689552893	-4.2905578209245165
N	0.39838188620171866	0.9666835521772281	-3.944985209901895
C	1.261391849711017	0.20584742336819986	-4.624309306005334
C	0.8638383852101548	-0.7347034782102437	-5.597080640773105
N	-0.39838273529696966	-0.9666041398587575	-5.942648488087659
C	-2.1048952934699035	1.4063956991519986	-3.7344172706312104
C	-3.237350252408624	0.7641893297389246	-4.476782221439977
O	-2.160441144215049	2.2622121949267435	-2.887200477380539
C	-2.7304656616919156	-0.18911266848980718	-5.380133327008364
C	2.1048297319965235	-1.406355581203425	-6.153234254949636
C	3.2373092527842484	-0.7642066970866831	-5.410890097379651
O	2.1603182793564537	-2.262147051021169	-7.000482693825898
C	2.7304940972044927	0.18911407583299794	-4.507511118179708
C	3.5832429953135407	0.9239506583407671	-3.698342171418285
C	4.958790305885678	0.6880444913108227	-3.808318561319617
C	5.4624560155020285	-0.25755775105954093	-4.7042618443087845
C	4.598667671016307	-0.9969634615128491	-5.519083373614075
C	-4.598730463194972	0.9969061663138981	-4.36871162257664
C	-5.46242969057146	0.25740879949051176	-5.183551367486944
C	-4.958671276616338	-0.6881604856504856	-6.079477791641458
C	-3.58310603320636	-0.9239553641192233	-6.18940421838665
H	-4.974524719692928	1.734888420519574	-3.6678769055100515
H	-6.533417248566938	0.4179646524898588	-5.120934180235721
H	-5.646562487400205	-1.25072689154811	-6.702203900414294
H	-3.1916073626635346	-1.6579040095085285	-6.884738880758613
H	4.9743529202852255	-1.7349934193292187	-6.219925405087276
H	6.533431207213291	-0.41816636453596057	-4.766966100778298
H	5.646742226377748	1.2505852566043392	-3.185636246854068
H	3.1918534827054907	1.6578913694499264	-3.002938591054661
