60
129h cofacial 3.5A
C	-1.2734012137372737	-0.33755370542705276	3.398834750979689e-06
C	-0.8392744437372739	1.0042699445729473	-6.52116524902031e-06
N	0.4359555762627263	1.3787172245729473	-1.481165249020311e-06
C	1.2734117762627264	0.33765711457294734	-5.02116524902031e-06
C	0.8392661962627262	-1.0041649454270527	-7.5411652490203105e-06
N	-0.4359538537372738	-1.3786125854270526	-6.3911652490203105e-06
C	-2.059400703737274	1.9052903945729474	1.878834750979689e-06
C	-3.2197798537372737	0.9568658045729473	2.3268834750979692e-05
O	-2.0830779337372736	3.1105799445729474	-1.1591165249020312e-05
C	-2.7468764937372736	-0.36907624542705264	8.878834750979689e-06
C	2.0593377662627264	-1.9052244754270529	9.468834750979688e-06
C	3.219741606262726	-0.9568559654270528	1.2278834750979689e-05
O	2.0829551362627265	-3.1105170354270526	-1.3381165249020311e-05
C	2.7469088062627263	0.36911719457294734	2.869883475097969e-05
C	3.630093686262726	1.4377164345729474	-2.260116524902031e-05
C	5.001505066262727	1.1564554245729473	3.108834750979689e-06
C	5.471469056262726	-0.1587217354270527	1.148883475097969e-05
C	4.577029446262726	-1.2342509154270527	-7.78116524902031e-06
C	-4.577096253737274	1.2341466145729474	-1.3901165249020311e-05
C	-5.471445703737274	0.15853721457294734	1.2768834750979689e-05
C	-5.001389023737273	-1.1566071454270526	3.908834750979689e-06
C	-3.6299594937372737	-1.4377544854270528	-1.457116524902031e-05
H	-4.926526953737273	2.2612330845729476	6.728834750979689e-06
H	-6.540078233737274	0.34491843457294735	2.2888347509796894e-06
H	-5.712705243737274	-1.9760534954270526	-6.201165249020311e-06
H	-3.264615973737273	-2.4585219554270528	5.058834750979689e-06
H	4.926352196262727	-2.2613734954270526	7.00883475097969e-06
H	6.540085056262726	-0.34520137542705265	-1.651165249020311e-06
H	5.7128797162627265	1.9758511345729473	-3.5911652490203106e-06
H	3.264863696262726	2.4585239145729476	5.07883475097969e-06
C	-1.2734011071143272	-0.33755358881381936	3.500003398834747
C	-0.8392743371143275	1.0042700611861808	3.499993478834747
N	0.4359556828856727	1.3787173411861808	3.499998518834747
C	1.2734118828856729	0.33765723118618074	3.499994978834747
C	0.8392663028856726	-1.0041648288138192	3.499992458834747
N	-0.4359537471143274	-1.378612468813819	3.499993608834747
C	-2.0594005971143274	1.9052905111861809	3.500001878834747
C	-3.2197797471143272	0.9568659211861807	3.500023268834747
O	-2.083077827114327	3.1105800611861807	3.499988408834747
C	-2.746876387114327	-0.36907612881381924	3.500008878834747
C	2.059337872885673	-1.9052243588138194	3.500009468834747
C	3.2197417128856727	-0.9568558488138194	3.500012278834747
O	2.082955242885673	-3.1105169188138193	3.499986618834747
C	2.7469089128856727	0.36911731118618074	3.500028698834747
C	3.6300937928856727	1.437716551186181	3.499977398834747
C	5.001505172885673	1.1564555411861808	3.500003108834747
C	5.471469162885672	-0.1587216188138193	3.500011488834747
C	4.577029552885672	-1.2342507988138192	3.499992218834747
C	-4.577096147114328	1.234146731186181	3.499986098834747
C	-5.471445597114328	0.15853733118618074	3.500012768834747
C	-5.001388917114327	-1.156607028813819	3.500003908834747
C	-3.629959387114327	-1.4377543688138192	3.499985428834747
H	-4.926526847114327	2.261233201186181	3.500006728834747
H	-6.540078127114328	0.34491855118618076	3.500002288834747
H	-5.712705137114328	-1.976053378813819	3.499993798834747
H	-3.2646158671143266	-2.4585218388138195	3.500005058834747
H	4.926352302885673	-2.2613733788138193	3.500007008834747
H	6.540085162885672	-0.34520125881381925	3.499998348834747
H	5.7128798228856725	1.9758512511861808	3.499996408834747
H	3.2648638028856727	2.458524031186181	3.500005078834747
