84
79a_H_capped cofacial 3.5A
C	-4.235848681238915	-1.2851755193358254	-7.351236773731724e-05
C	-4.7463760012389145	0.04392835066417464	5.843763226268277e-05
C	-3.8316976512389145	1.0902829906641747	-4.363236773731723e-05
C	-2.4219105212389147	0.8885330806641747	4.756763226268277e-05
C	-1.8795035412389147	-0.43138135933582533	-4.472236773731723e-05
C	-2.845472551238915	-1.5092960793358254	5.697763226268277e-05
C	-1.5445398112389146	1.9989610706641747	-1.4512367737317232e-05
C	-0.1930788612389147	1.8513455506641747	7.376322626827683e-07
C	0.4301647587610852	0.5738171706641747	5.148763226268277e-05
C	-0.43016606123891477	-0.5738040493358254	-4.227236773731723e-05
C	1.8795030487610855	0.43139135066417467	-7.402236773731724e-05
C	2.4219061487610856	-0.8885251793358253	6.033763226268277e-05
C	1.5445345187610853	-1.9989513493358253	-4.163236773731723e-05
C	0.19307516876108533	-1.8513327393358254	4.735763226268277e-05
C	2.8454786687610856	1.5093003206641746	4.671763226268277e-05
C	4.235853998761085	1.2851715506641748	-4.8052367737317234e-05
C	4.7463756287610845	-0.04393443933582536	3.930763226268277e-05
C	3.8316914887610856	-1.0902830993358255	-2.819236773731723e-05
S	2.5648229187610854	3.2545309806641742	-4.322367737317231e-06
C	4.2624275187610845	3.6072175206641743	1.2776322626827683e-06
C	5.018116328761085	2.4839760006641742	6.947632262682768e-06
S	4.655184338761085	-2.6409035393358256	4.847632262682768e-06
C	6.207217058761085	-1.8492126993358253	-7.022367737317232e-06
C	6.1081387487610845	-0.49555234933582537	3.1676322626827686e-06
S	-4.655201871238915	2.6408978806641743	4.267632262682769e-06
C	-6.2072294512389155	1.8491967106641745	7.677632262682767e-06
C	-6.108142101238915	0.4955370806641747	-1.568236773731723e-05
S	-2.5648073312389146	-3.2545252693358258	-9.992367737317231e-06
C	-4.262408941238915	-3.6072216393358256	-3.123677373172316e-07
C	-5.018104661238915	-2.4839846893358257	1.9097632262682768e-05
H	-7.104685181238915	2.4508638306641743	6.9376322626827685e-06
H	-6.969784501238915	-0.16008751933582538	-4.752367737317231e-06
H	-6.100672261238915	-2.4925116093358257	1.9376322626827685e-06
H	-4.586897011238915	-4.637818889335826	1.8576322626827684e-06
H	-0.39156055123891476	-2.7544104193358256	-2.3677373172316105e-09
H	1.9629724387610854	-2.999959399335826	-9.823677373172317e-07
H	7.104668408761085	-2.450886339335826	2.1076322626827686e-06
H	6.969785658761085	0.16006628066417464	-1.7223677373172318e-06
H	6.100684048761085	2.4924949406641743	5.477632262682769e-06
H	4.586923828761085	4.637812320664175	-3.3823677373172314e-06
H	0.39155616876108523	2.7544243106641746	-2.1823677373172314e-06
H	-1.9629798012389146	2.9999684306641745	-1.1223677373172316e-06
C	-4.235848399854267	-1.285176229581411	3.49992648763218
C	-4.746375719854266	0.04392764041858885	3.5000584376321795
C	-3.831697369854267	1.090282280418589	3.4999563676321794
C	-2.421910239854267	0.8885323704185889	3.50004756763218
C	-1.879503259854267	-0.4313820695814111	3.49995527763218
C	-2.8454722698542674	-1.5092967895814111	3.5000569776321795
C	-1.5445395298542668	1.998960360418589	3.4999854876321796
C	-0.193078579854267	1.851344840418589	3.50000073763218
C	0.43016504014573287	0.5738164604185889	3.5000514876321795
C	-0.43016577985426707	-0.5738047595814112	3.4999577276321796
C	1.8795033301457333	0.4313906404185889	3.49992597763218
C	2.421906430145733	-0.8885258895814111	3.5000603376321795
C	1.544534800145733	-1.998952059581411	3.4999583676321797
C	0.19307545014573305	-1.851333449581411	3.50004735763218
C	2.845478950145733	1.509299610418589	3.5000467176321797
C	4.235854280145733	1.285170840418589	3.4999519476321796
C	4.746375910145733	-0.04393514958141115	3.50003930763218
C	3.831691770145733	-1.0902838095814111	3.4999718076321797
S	2.564823200145733	3.2545302704185883	3.4999956776321794
C	4.2624278001457325	3.6072168104185884	3.5000012776321796
C	5.018116610145733	2.4839752904185883	3.50000694763218
S	4.655184620145733	-2.6409042495814115	3.5000048476321797
C	6.207217340145733	-1.849213409581411	3.4999929776321794
C	6.108139030145733	-0.49555305958141116	3.5000031676321797
S	-4.655201589854267	2.6408971704185884	3.5000042676321796
C	-6.207229169854267	1.8491960004185888	3.50000767763218
C	-6.108141819854267	0.4955363704185889	3.4999843176321797
S	-2.564807049854267	-3.2545259795814117	3.4999900076321797
C	-4.262408659854267	-3.6072223495814115	3.4999996876321795
C	-5.018104379854267	-2.4839853995814116	3.5000190976321797
H	-7.104684899854267	2.4508631204185884	3.50000693763218
H	-6.969784219854267	-0.16008822958141117	3.49999524763218
H	-6.100671979854267	-2.4925123195814116	3.5000019376321796
H	-4.586896729854267	-4.6378195995814115	3.5000018576321796
H	-0.39156026985426706	-2.7544111295814115	3.49999999763218
H	1.9629727201457332	-2.9999601095814117	3.4999990176321796
H	7.104668690145733	-2.4508870495814117	3.5000021076321794
H	6.969785940145733	0.16006557041858885	3.4999982776321796
H	6.100684330145733	2.4924942304185884	3.50000547763218
H	4.586924110145733	4.637811610418589	3.4999966176321795
H	0.3915564501457329	2.7544236004185887	3.4999978176321798
H	-1.9629795198542668	2.9999677204185886	3.4999988776321795
