84
79a_H_capped TL90.0
C	-4.235848681238915	-1.2851755193358254	-7.351236773731724e-05
C	-4.7463760012389145	0.04392835066417464	5.843763226268277e-05
C	-3.8316976512389145	1.0902829906641747	-4.363236773731723e-05
C	-2.4219105212389147	0.8885330806641747	4.756763226268277e-05
C	-1.8795035412389147	-0.43138135933582533	-4.472236773731723e-05
C	-2.845472551238915	-1.5092960793358254	5.697763226268277e-05
C	-1.5445398112389146	1.9989610706641747	-1.4512367737317232e-05
C	-0.1930788612389147	1.8513455506641747	7.376322626827683e-07
C	0.4301647587610852	0.5738171706641747	5.148763226268277e-05
C	-0.43016606123891477	-0.5738040493358254	-4.227236773731723e-05
C	1.8795030487610855	0.43139135066417467	-7.402236773731724e-05
C	2.4219061487610856	-0.8885251793358253	6.033763226268277e-05
C	1.5445345187610853	-1.9989513493358253	-4.163236773731723e-05
C	0.19307516876108533	-1.8513327393358254	4.735763226268277e-05
C	2.8454786687610856	1.5093003206641746	4.671763226268277e-05
C	4.235853998761085	1.2851715506641748	-4.8052367737317234e-05
C	4.7463756287610845	-0.04393443933582536	3.930763226268277e-05
C	3.8316914887610856	-1.0902830993358255	-2.819236773731723e-05
S	2.5648229187610854	3.2545309806641742	-4.322367737317231e-06
C	4.2624275187610845	3.6072175206641743	1.2776322626827683e-06
C	5.018116328761085	2.4839760006641742	6.947632262682768e-06
S	4.655184338761085	-2.6409035393358256	4.847632262682768e-06
C	6.207217058761085	-1.8492126993358253	-7.022367737317232e-06
C	6.1081387487610845	-0.49555234933582537	3.1676322626827686e-06
S	-4.655201871238915	2.6408978806641743	4.267632262682769e-06
C	-6.2072294512389155	1.8491967106641745	7.677632262682767e-06
C	-6.108142101238915	0.4955370806641747	-1.568236773731723e-05
S	-2.5648073312389146	-3.2545252693358258	-9.992367737317231e-06
C	-4.262408941238915	-3.6072216393358256	-3.123677373172316e-07
C	-5.018104661238915	-2.4839846893358257	1.9097632262682768e-05
H	-7.104685181238915	2.4508638306641743	6.9376322626827685e-06
H	-6.969784501238915	-0.16008751933582538	-4.752367737317231e-06
H	-6.100672261238915	-2.4925116093358257	1.9376322626827685e-06
H	-4.586897011238915	-4.637818889335826	1.8576322626827684e-06
H	-0.39156055123891476	-2.7544104193358256	-2.3677373172316105e-09
H	1.9629724387610854	-2.999959399335826	-9.823677373172317e-07
H	7.104668408761085	-2.450886339335826	2.1076322626827686e-06
H	6.969785658761085	0.16006628066417464	-1.7223677373172318e-06
H	6.100684048761085	2.4924949406641743	5.477632262682769e-06
H	4.586923828761085	4.637812320664175	-3.3823677373172314e-06
H	0.39155616876108523	2.7544243106641746	-2.1823677373172314e-06
H	-1.9629798012389146	2.9999684306641745	-1.1223677373172316e-06
C	-4.265376683797073	-0.10680558022549229	-8.570126244006948
C	-4.742296723679123	-0.11888810223809664	-7.228650732733306
C	-3.8019919200724352	-0.0952241022209499	-6.205537142537226
C	-2.3981393975762466	-0.06013798220116701	-6.4425389266637
C	-1.8891285855908933	-0.047291010936452584	-7.7756264774277195
C	-2.881482205889145	-0.07225886570587249	-8.829005412438818
C	-1.4935132872287098	-0.03740801157494493	-5.354437535933917
C	-0.14659660608657332	-0.003672600297000366	-5.535860846010917
C	0.4442651421938806	0.01108228421570089	-6.8286005962907925
C	-0.444267072909291	-0.011088521112496287	-7.954310395191934
C	1.8891241806051051	0.047412712206141044	-7.00728766336332
C	2.3981367402379834	0.06003300611851065	-8.340377206277452
C	1.4935056466148162	0.03746701211730036	-9.428476754532342
C	0.14659325304640286	0.0036274355557272997	-9.247050395505005
C	2.88148983485423	0.07215835869606349	-5.953914642128441
C	4.265377664936483	0.10693023734440317	-6.2128019979439975
C	4.742297458984591	0.11879337435654774	-7.554279486017818
C	3.8019827710583103	0.0952987498881104	-8.577386953050862
S	2.6447132465893177	0.06627633238608392	-4.202201207164464
C	4.350084770630719	0.10900345911124008	-3.892150354722143
C	5.077171145182318	0.12721691682280117	-5.033969413830406
S	4.586128836965446	0.11491461498967026	-10.148149312288323
C	6.157013001425953	0.15428927009887883	-9.395585342506585
C	6.091895684580979	0.15264738516564744	-8.039867859385861
S	-4.586147460293118	-0.11492117013394226	-4.634780046739543
C	-6.157026958586209	-0.15428724566406102	-5.387354472036776
C	-6.091900919290145	-0.15263196803205642	-6.743071461835538
S	-2.6446990728887485	-0.06625862835691212	-10.58071761508769
C	-4.350067472208844	-0.10900096157998825	-10.890778369344881
C	-5.077160238616544	-0.12723966732941258	-9.748963705706972
H	-7.038852515667126	-0.1763830466070261	-4.763394879547733
H	-6.969420615461784	-0.17463154756516386	-7.376906174559278
H	-6.159262490485732	-0.15433752120302288	-9.730369619443053
H	-4.700160243345443	-0.11777566019534037	-11.912923787348944
H	-0.46029180206928366	-0.011532347616789947	-10.135199557700446
H	1.886614621067246	0.047276765429645394	-10.43965256202383
H	7.038834228148827	0.17637656989934525	-10.0195513432306
H	6.969419889722117	0.17464103578733797	-7.406039227764282
H	6.1592728504609395	0.15433339284796915	-5.052571480596196
H	4.700185652869303	0.11778085175394455	-2.8700075923613593
H	0.46028652700061534	0.011537430496523232	-4.647710586869874
H	-1.8866229939668293	-0.04727184019961493	-4.343262366372384
