84
79a_H_capped TL45.0
C	-4.235848681238915	-1.2851755193358254	-7.351236773731724e-05
C	-4.7463760012389145	0.04392835066417464	5.843763226268277e-05
C	-3.8316976512389145	1.0902829906641747	-4.363236773731723e-05
C	-2.4219105212389147	0.8885330806641747	4.756763226268277e-05
C	-1.8795035412389147	-0.43138135933582533	-4.472236773731723e-05
C	-2.845472551238915	-1.5092960793358254	5.697763226268277e-05
C	-1.5445398112389146	1.9989610706641747	-1.4512367737317232e-05
C	-0.1930788612389147	1.8513455506641747	7.376322626827683e-07
C	0.4301647587610852	0.5738171706641747	5.148763226268277e-05
C	-0.43016606123891477	-0.5738040493358254	-4.227236773731723e-05
C	1.8795030487610855	0.43139135066417467	-7.402236773731724e-05
C	2.4219061487610856	-0.8885251793358253	6.033763226268277e-05
C	1.5445345187610853	-1.9989513493358253	-4.163236773731723e-05
C	0.19307516876108533	-1.8513327393358254	4.735763226268277e-05
C	2.8454786687610856	1.5093003206641746	4.671763226268277e-05
C	4.235853998761085	1.2851715506641748	-4.8052367737317234e-05
C	4.7463756287610845	-0.04393443933582536	3.930763226268277e-05
C	3.8316914887610856	-1.0902830993358255	-2.819236773731723e-05
S	2.5648229187610854	3.2545309806641742	-4.322367737317231e-06
C	4.2624275187610845	3.6072175206641743	1.2776322626827683e-06
C	5.018116328761085	2.4839760006641742	6.947632262682768e-06
S	4.655184338761085	-2.6409035393358256	4.847632262682768e-06
C	6.207217058761085	-1.8492126993358253	-7.022367737317232e-06
C	6.1081387487610845	-0.49555234933582537	3.1676322626827686e-06
S	-4.655201871238915	2.6408978806641743	4.267632262682769e-06
C	-6.2072294512389155	1.8491967106641745	7.677632262682767e-06
C	-6.108142101238915	0.4955370806641747	-1.568236773731723e-05
S	-2.5648073312389146	-3.2545252693358258	-9.992367737317231e-06
C	-4.262408941238915	-3.6072216393358256	-3.123677373172316e-07
C	-5.018104661238915	-2.4839846893358257	1.9097632262682768e-05
H	-7.104685181238915	2.4508638306641743	6.9376322626827685e-06
H	-6.969784501238915	-0.16008751933582538	-4.752367737317231e-06
H	-6.100672261238915	-2.4925116093358257	1.9376322626827685e-06
H	-4.586897011238915	-4.637818889335826	1.8576322626827684e-06
H	-0.39156055123891476	-2.7544104193358256	-2.3677373172316105e-09
H	1.9629724387610854	-2.999959399335826	-9.823677373172317e-07
H	7.104668408761085	-2.450886339335826	2.1076322626827686e-06
H	6.969785658761085	0.16006628066417464	-1.7223677373172318e-06
H	6.100684048761085	2.4924949406641743	5.477632262682769e-06
H	4.586923828761085	4.637812320664175	-3.3823677373172314e-06
H	0.39155616876108523	2.7544243106641746	-2.1823677373172314e-06
H	-1.9629798012389146	2.9999684306641745	-1.1223677373172316e-06
C	-4.24449832361895	-0.9400076560646371	-6.578467494212763
C	-4.745180888605372	-0.003782807857980005	-5.629807775533193
C	-3.8229977505719326	0.7430749157341547	-4.906429363037969
C	-2.414947886864358	0.6106548645108071	-5.073950399815957
C	-1.882323416774818	-0.31886459697459235	-6.016650889882875
C	-2.8560192785853418	-1.0884204025543545	-6.761430396184904
C	-1.5295948644414257	1.4025291594674736	-4.304590396781792
C	-0.17946474634338425	1.3080237405444441	-4.432865224207466
C	0.4342949297610241	0.4089753313287017	-5.346934363838898
C	-0.43429689627019125	-0.4089702427970805	-6.142997722339277
C	1.8823199706091016	0.31895793061858596	-5.4733739045762615
C	2.414944560724034	-0.6107232530232266	-6.4159155375542
C	1.5295877260086732	-1.4024803029922837	-7.185390238629355
C	0.17946107667950545	-1.3080463724872133	-7.057039546459299
C	2.8560263391004774	1.0883524782838028	-4.728441291112891
C	4.244500534042358	0.9400931519616802	-4.911569265313119
C	4.745181279153684	0.003711735639375713	-5.860075306213497
C	3.8229893924597316	-0.7430219343512721	-6.583569293075678
S	2.588222022852566	2.3207152506636866	-3.4898289406705367
C	4.288101571339564	2.5826144086003535	-3.2705858673993555
C	5.0354129457590275	1.7936949397329178	-4.077969835006153
S	4.634958130684638	-1.8337445156544667	-7.694242621655826
C	6.192512212457384	-1.2623971178404856	-7.162107879700694
C	6.1033809950021345	-0.30569981831710275	-6.203463650626098
S	-4.6349764637279876	1.8337362729170734	-3.7957025230492705
C	-6.192525632064562	1.2623875867375274	-4.327850640293526
C	-6.103385604269438	0.30570017244218056	-5.286503833132843
S	-2.588207573602023	-2.3206986462722745	-8.000125320919842
C	-4.288083934084737	-2.582615536145959	-8.219364591239763
C	-5.035401806512847	-1.793717078951628	-7.411965997462007
H	-7.085403379322996	1.6813591114550022	-3.8866451320254445
H	-6.969678263686876	-0.1643444548558359	-5.734684955348092
H	-6.117833287519413	-1.807676160116174	-7.398830160683044
H	-4.62007145704052	-3.313928778456973	-8.942129024168523
H	-0.41169184226985606	-1.951039292413047	-7.6850893492615695
H	1.940607360187077	-2.107443518492777	-7.900370752924822
H	7.08538568131024	-1.6813792169822857	-7.603311986649427
H	6.969678226788737	0.16433634995050128	-5.75528255747433
H	6.117844158220178	1.8076615468644015	-4.091124488251442
H	4.620097270705619	3.3139277386299604	-2.547825072989598
H	0.4116866000467718	1.9510529614556114	-3.8048501990765002
H	-1.9406156160921066	2.1074536716952617	-3.5895721215205327
