84
79a_H_capped TS90.0
C	-4.235848681238915	-1.2851755193358254	-7.351236773731724e-05
C	-4.7463760012389145	0.04392835066417464	5.843763226268277e-05
C	-3.8316976512389145	1.0902829906641747	-4.363236773731723e-05
C	-2.4219105212389147	0.8885330806641747	4.756763226268277e-05
C	-1.8795035412389147	-0.43138135933582533	-4.472236773731723e-05
C	-2.845472551238915	-1.5092960793358254	5.697763226268277e-05
C	-1.5445398112389146	1.9989610706641747	-1.4512367737317232e-05
C	-0.1930788612389147	1.8513455506641747	7.376322626827683e-07
C	0.4301647587610852	0.5738171706641747	5.148763226268277e-05
C	-0.43016606123891477	-0.5738040493358254	-4.227236773731723e-05
C	1.8795030487610855	0.43139135066417467	-7.402236773731724e-05
C	2.4219061487610856	-0.8885251793358253	6.033763226268277e-05
C	1.5445345187610853	-1.9989513493358253	-4.163236773731723e-05
C	0.19307516876108533	-1.8513327393358254	4.735763226268277e-05
C	2.8454786687610856	1.5093003206641746	4.671763226268277e-05
C	4.235853998761085	1.2851715506641748	-4.8052367737317234e-05
C	4.7463756287610845	-0.04393443933582536	3.930763226268277e-05
C	3.8316914887610856	-1.0902830993358255	-2.819236773731723e-05
S	2.5648229187610854	3.2545309806641742	-4.322367737317231e-06
C	4.2624275187610845	3.6072175206641743	1.2776322626827683e-06
C	5.018116328761085	2.4839760006641742	6.947632262682768e-06
S	4.655184338761085	-2.6409035393358256	4.847632262682768e-06
C	6.207217058761085	-1.8492126993358253	-7.022367737317232e-06
C	6.1081387487610845	-0.49555234933582537	3.1676322626827686e-06
S	-4.655201871238915	2.6408978806641743	4.267632262682769e-06
C	-6.2072294512389155	1.8491967106641745	7.677632262682767e-06
C	-6.108142101238915	0.4955370806641747	-1.568236773731723e-05
S	-2.5648073312389146	-3.2545252693358258	-9.992367737317231e-06
C	-4.262408941238915	-3.6072216393358256	-3.123677373172316e-07
C	-5.018104661238915	-2.4839846893358257	1.9097632262682768e-05
H	-7.104685181238915	2.4508638306641743	6.9376322626827685e-06
H	-6.969784501238915	-0.16008751933582538	-4.752367737317231e-06
H	-6.100672261238915	-2.4925116093358257	1.9376322626827685e-06
H	-4.586897011238915	-4.637818889335826	1.8576322626827684e-06
H	-0.39156055123891476	-2.7544104193358256	-2.3677373172316105e-09
H	1.9629724387610854	-2.999959399335826	-9.823677373172317e-07
H	7.104668408761085	-2.450886339335826	2.1076322626827686e-06
H	6.969785658761085	0.16006628066417464	-1.7223677373172318e-06
H	6.100684048761085	2.4924949406641743	5.477632262682769e-06
H	4.586923828761085	4.637812320664175	-3.3823677373172314e-06
H	0.39155616876108523	2.7544243106641746	-2.1823677373172314e-06
H	-1.9629798012389146	2.9999684306641745	-1.1223677373172316e-06
C	0.029599492886285002	-1.1782939329027178	5.644331143389544
C	-0.004136018129574807	0.1627573882350002	5.167258267931882
C	-0.029662697452923565	1.1855523667541228	6.107860919206759
C	-0.023817033307024553	0.9486224858447219	7.512151788706037
C	0.009668714102620768	-0.3840445045038063	8.021324516713431
C	0.035953901890962925	-1.437095314748532	7.0286567162072355
C	-0.05101161712759444	2.03638387501704	8.417063553704153
C	-0.04648225283065604	1.855016937884603	9.764402620281901
C	-0.014150201823908198	0.5626814934125036	10.355448398196344
C	0.014142253660163747	-0.5626726009838362	9.46663948036576
C	-0.009548663530084375	0.3840534539758947	11.800764093187555
C	0.02371055490372588	-0.9486212054186729	12.309932890057713
C	0.05106909109292788	-2.03637664328575	11.405020250939554
C	0.04643544313046904	-1.8550092693439073	10.057682861264652
C	-0.036056073379619975	1.437092780237077	12.793438357581195
C	-0.02947626996836501	1.1782888562792906	14.177762924988274
C	0.004040049383896015	-0.16276993469408876	14.654830059125182
C	0.02973609211363291	-1.1855545442879472	13.714221769467073
S	-0.079885000723739	3.1882578476988654	12.556588952163763
C	-0.08765728391839588	3.498211046843767	14.262495684498058
C	-0.05906068935061481	2.35675004716226	14.989809998140032
S	0.06905023979264292	-2.7558249373782444	14.49861294382772
C	0.05021058606931354	-2.0034970236965575	16.069990596708895
C	0.016240040617667813	-0.6482052030643163	16.004852760181436
S	-0.0690576278857537	2.7558154705325277	5.323458239385783
C	-0.05020925490925162	2.0034773165363142	3.7520854661237006
C	-0.016225555947822674	0.6481863189750205	3.8172323578504725
S	0.07990077133515051	-3.188256194164368	7.265515625476651
C	0.08765802736238497	-3.498219674777261	5.559611635961197
C	0.05903647076987886	-2.356763697433183	4.832290300008465
H	-0.0658385380315905	2.627241247219162	2.8699832073760883
H	-0.00035909623425392674	0.014550339546084458	2.9394368561807065
H	0.05858784500982198	-2.3381748757938348	3.7498488135188257
H	0.11326032480122683	-4.520044358928776	5.209408785445807
H	0.06873068401306813	-2.7428784708832863	9.450608379303103
H	0.07635813722600521	-3.047236219345266	11.798251470892406
H	0.06583164234893021	-2.627267570770168	16.95208831350405
H	0.00036769512940152066	-0.014575454130269274	16.882652620886603
H	-0.05859323952710957	2.3381537142017734	16.07225140469189
H	-0.11325702561540749	4.520033138558098	14.612706711054859
H	-0.06872725696899934	2.742888495525936	10.371476439514128
H	-0.07635467032329057	3.0472414596595785	8.023830247116278
