68
101b TS45.0
C	-6.058669952101022	-0.1566703756014678	-3.863599614739771e-06
C	-5.926397772101022	1.2695783443985322	-9.94359961473977e-06
C	-4.695771342101022	1.8520971243985322	1.901640038526023e-05
C	-3.500698062101022	1.056906114398532	4.22640038526023e-06
C	-3.6353181221010225	-0.3936922356014678	-1.5973599614739772e-05
C	-4.956226252101022	-0.955463615601468	1.571640038526023e-05
C	-2.2377155521010224	1.6277787243985322	-1.9335996147397707e-06
C	-1.0716273621010226	0.8312680643985322	-1.3535996147397705e-06
C	-1.2063251921010225	-0.6194058656014678	-3.0235996147397704e-06
C	-2.4991474221010224	-1.1872077956014677	-2.9235996147397705e-06
N	0.13210897789897746	1.421682404398532	-1.0735996147397707e-06
C	1.2064387278989774	0.6195752443985323	1.2640038526022937e-07
C	1.0715463778989776	-0.8310819556014679	-4.263599614739771e-06
N	-0.13203151210102249	-1.4208449256014677	1.0640038526022935e-07
C	2.4993602578989775	1.1874935343985322	7.71640038526023e-06
C	3.635470887898977	0.39365645439853214	5.796400385260229e-06
C	3.5005423178989776	-1.056913805601468	-1.030359961473977e-05
C	2.2375614078989776	-1.6274606156014677	1.0006400385260228e-05
C	4.956521147898978	0.9551562543985322	-1.7903599614739772e-05
C	6.058765387898978	0.1560370943985323	-2.9135996147397706e-06
C	5.926184537898978	-1.2701824656014677	1.937640038526023e-05
C	4.695425367898977	-1.852349165601468	-8.733599614739772e-06
H	-2.1097870121010223	2.7052526743985323	1.272640038526023e-05
H	-4.595259732101022	2.9331628443985323	6.64003852602293e-08
H	-6.820535792101022	1.8844640443985323	-6.653599614739771e-06
H	-7.050774872101022	-0.5964140556014677	1.6246400385260228e-05
H	-5.056382052101022	-2.0365130456014677	-1.3883599614739771e-05
H	-2.572041012101023	-2.269673935601468	6.766400385260229e-06
H	2.1094265678989776	-2.704789385601468	-1.2435996147397708e-06
H	4.594608847898978	-2.933328315601468	1.126640038526023e-05
H	6.820225857898977	-1.8852096156014677	-5.273599614739771e-06
H	7.050947007898977	0.5956018643985321	1.5086400385260229e-05
H	5.056977747898977	2.036239844398532	-8.16359961473977e-06
H	2.572478537898977	2.2700666343985323	2.2640038526022936e-07
C	-4.303543512000723	-0.3197616794417217	3.2177339133105844
C	-4.171191885477576	1.106479658151553	3.2175472655637627
C	-3.2822239534279913	1.7207463616384195	4.0459082815952865
C	-2.455629621652789	0.9597955111135977	4.939342387131996
C	-2.590285871429637	-0.4907994760233058	4.939450435678356
C	-3.5428018419533442	-1.0868029508311112	4.046209955065349
C	-1.5439908838723573	1.5633160290854309	5.7912215766989
C	-0.7380112128774475	0.800267723388482	6.664345251482376
C	-0.8727377352419793	-0.6504035404315729	6.664416591702332
C	-1.805464036741129	-1.2516666547875792	5.7913228602504665
N	0.13210837281100185	1.4216827241477865	7.473236821809936
C	0.8728235055298773	0.6505760263278089	8.28212238887007
C	0.7379613155315241	-0.8000839762289066	8.282053754811026
N	-0.1320315295147506	-1.4208446604607277	7.473234417394135
C	1.8056179971857078	1.2519583915024133	9.155283859678999
C	2.590399069609223	0.49076789860705083	10.007124440466932
C	2.455521768030122	-0.9598071254059174	10.007016336630464
C	1.5438829942040346	-1.5630016913525218	9.15512696381997
C	3.5430029438765995	1.0865048322792625	10.900488408845675
C	4.303597511529339	0.3191327756658314	11.728842093634363
C	4.171016222206727	-1.107086743512574	11.728820969405419
C	3.2819629978488645	-1.7210057759800923	10.900344061005923
H	-1.4241473202949422	2.6415412591327865	5.810809788675555
H	-3.181715249424745	2.801812351673612	4.045934201274548
H	-4.789095459271011	1.6956968320769574	2.547781994495238
H	-5.019435183789342	-0.7851719157367596	2.548003293577506
H	-3.6430234358067635	-2.167846267068535	4.046399156011459
H	-1.8864058710054643	-2.333384928001229	5.8108271332461365
H	1.423894553792936	-2.641087449023363	9.135386414356955
H	3.181239522071893	-2.8019935719273543	10.900098540904704
H	4.788862398511224	-1.696449019542659	12.398512307060788
H	5.01951195086783	0.7843691135218057	12.398665368759968
H	3.6434528943276705	2.1675890401744304	10.900494715193123
H	1.886720611846346	2.3337895633863064	9.13593234280308
