68
101b TL45.0
C	-6.058669952101022	-0.1566703756014678	-3.863599614739771e-06
C	-5.926397772101022	1.2695783443985322	-9.94359961473977e-06
C	-4.695771342101022	1.8520971243985322	1.901640038526023e-05
C	-3.500698062101022	1.056906114398532	4.22640038526023e-06
C	-3.6353181221010225	-0.3936922356014678	-1.5973599614739772e-05
C	-4.956226252101022	-0.955463615601468	1.571640038526023e-05
C	-2.2377155521010224	1.6277787243985322	-1.9335996147397707e-06
C	-1.0716273621010226	0.8312680643985322	-1.3535996147397705e-06
C	-1.2063251921010225	-0.6194058656014678	-3.0235996147397704e-06
C	-2.4991474221010224	-1.1872077956014677	-2.9235996147397705e-06
N	0.13210897789897746	1.421682404398532	-1.0735996147397707e-06
C	1.2064387278989774	0.6195752443985323	1.2640038526022937e-07
C	1.0715463778989776	-0.8310819556014679	-4.263599614739771e-06
N	-0.13203151210102249	-1.4208449256014677	1.0640038526022935e-07
C	2.4993602578989775	1.1874935343985322	7.71640038526023e-06
C	3.635470887898977	0.39365645439853214	5.796400385260229e-06
C	3.5005423178989776	-1.056913805601468	-1.030359961473977e-05
C	2.2375614078989776	-1.6274606156014677	1.0006400385260228e-05
C	4.956521147898978	0.9551562543985322	-1.7903599614739772e-05
C	6.058765387898978	0.1560370943985323	-2.9135996147397706e-06
C	5.926184537898978	-1.2701824656014677	1.937640038526023e-05
C	4.695425367898977	-1.852349165601468	-8.733599614739772e-06
H	-2.1097870121010223	2.7052526743985323	1.272640038526023e-05
H	-4.595259732101022	2.9331628443985323	6.64003852602293e-08
H	-6.820535792101022	1.8844640443985323	-6.653599614739771e-06
H	-7.050774872101022	-0.5964140556014677	1.6246400385260228e-05
H	-5.056382052101022	-2.0365130456014677	-1.3883599614739771e-05
H	-2.572041012101023	-2.269673935601468	6.766400385260229e-06
H	2.1094265678989776	-2.704789385601468	-1.2435996147397708e-06
H	4.594608847898978	-2.933328315601468	1.126640038526023e-05
H	6.820225857898977	-1.8852096156014677	-5.273599614739771e-06
H	7.050947007898977	0.5956018643985321	1.5086400385260229e-05
H	5.056977747898977	2.036239844398532	-8.16359961473977e-06
H	2.572478537898977	2.2700666343985323	2.2640038526022936e-07
C	-6.039250357742041	0.05231065603935058	-4.820876104515331
C	-5.9457947042947055	1.0608320754320177	-3.8080424911288633
C	-4.733974251986217	1.44096875181162	-3.3173727052811555
C	-3.5204394278607265	0.8444531947422744	-3.799068987166831
C	-3.6155783152251564	-0.1812652101225562	-4.829218723864255
C	-4.918017903357079	-0.5442858304979028	-5.311144569550603
C	-2.2760274718341647	1.2154772332502926	-3.314506912712584
C	-1.0913704576827836	0.6187965291296753	-3.799017794430948
C	-1.1865860929469585	-0.40698645635685526	-4.829212730391479
C	-2.460845410745444	-0.7750220524204718	-5.313569356368396
N	0.09341615446528818	1.005281786182307	-3.3045685059594545
C	1.1866957751746499	0.4071052464992498	-3.7990225545566587
C	1.0912858341665335	-0.6186587032470153	-4.829220361085776
N	-0.09336060578169701	-1.0046892883862935	-5.3231973825697505
C	2.4610505010683514	0.7752153194874112	-3.3145720682644972
C	3.615733141325776	0.1812424829190325	-3.7991635899532965
C	3.520285491305607	-0.8444505509303718	-4.829310834222947
C	2.2758654142665398	-1.2152534029583109	-5.3136334112603265
C	4.918321308536385	0.5440609255777296	-3.3174140079945498
C	6.039363897824405	-0.05275822459717761	-3.8079282399021417
C	5.945598500959125	-1.0612620357011895	-4.820750054906903
C	4.7336360854982935	-1.4411458878087908	-5.311180033942024
H	-2.1774947393582815	1.9766057392255103	-2.54750592020161
H	-4.662884424564179	2.2054094951410104	-2.5496603493573193
H	-6.854282797186941	1.5212882644575745	-3.4336139853418146
H	-7.017003155820337	-0.23298146223387378	-5.195381845317526
H	-4.988750076132946	-1.308690432410457	-6.0788565074299346
H	-2.5043480729972676	-1.541195262564504	-6.080467361476036
H	2.177122758493151	-1.9762757213602196	-6.080543272223858
H	4.662239707940169	-2.2055177116022264	-6.078850644361562
H	6.853995350607687	-1.5218009513414987	-5.195299582261433
H	7.017195537886411	0.23237803473254262	-3.433516499001726
H	4.989353904663828	1.3084956341987175	-2.5496723823882155
H	2.5047742598406217	1.5414568180957033	-2.5475824995614986
