68
101b cofacial 4.5A
C	-6.058669952101022	-0.1566703756014678	-3.863599614739771e-06
C	-5.926397772101022	1.2695783443985322	-9.94359961473977e-06
C	-4.695771342101022	1.8520971243985322	1.901640038526023e-05
C	-3.500698062101022	1.056906114398532	4.22640038526023e-06
C	-3.6353181221010225	-0.3936922356014678	-1.5973599614739772e-05
C	-4.956226252101022	-0.955463615601468	1.571640038526023e-05
C	-2.2377155521010224	1.6277787243985322	-1.9335996147397707e-06
C	-1.0716273621010226	0.8312680643985322	-1.3535996147397705e-06
C	-1.2063251921010225	-0.6194058656014678	-3.0235996147397704e-06
C	-2.4991474221010224	-1.1872077956014677	-2.9235996147397705e-06
N	0.13210897789897746	1.421682404398532	-1.0735996147397707e-06
C	1.2064387278989774	0.6195752443985323	1.2640038526022937e-07
C	1.0715463778989776	-0.8310819556014679	-4.263599614739771e-06
N	-0.13203151210102249	-1.4208449256014677	1.0640038526022935e-07
C	2.4993602578989775	1.1874935343985322	7.71640038526023e-06
C	3.635470887898977	0.39365645439853214	5.796400385260229e-06
C	3.5005423178989776	-1.056913805601468	-1.030359961473977e-05
C	2.2375614078989776	-1.6274606156014677	1.0006400385260228e-05
C	4.956521147898978	0.9551562543985322	-1.7903599614739772e-05
C	6.058765387898978	0.1560370943985323	-2.9135996147397706e-06
C	5.926184537898978	-1.2701824656014677	1.937640038526023e-05
C	4.695425367898977	-1.852349165601468	-8.733599614739772e-06
H	-2.1097870121010223	2.7052526743985323	1.272640038526023e-05
H	-4.595259732101022	2.9331628443985323	6.64003852602293e-08
H	-6.820535792101022	1.8844640443985323	-6.653599614739771e-06
H	-7.050774872101022	-0.5964140556014677	1.6246400385260228e-05
H	-5.056382052101022	-2.0365130456014677	-1.3883599614739771e-05
H	-2.572041012101023	-2.269673935601468	6.766400385260229e-06
H	2.1094265678989776	-2.704789385601468	-1.2435996147397708e-06
H	4.594608847898978	-2.933328315601468	1.126640038526023e-05
H	6.820225857898977	-1.8852096156014677	-5.273599614739771e-06
H	7.050947007898977	0.5956018643985321	1.5086400385260229e-05
H	5.056977747898977	2.036239844398532	-8.16359961473977e-06
H	2.572478537898977	2.2700666343985323	2.2640038526022936e-07
C	-6.0586703755895455	-0.15667017756983756	4.499996136400362
C	-5.926398195589545	1.2695785424301624	4.499990056400361
C	-4.695771765589545	1.8520973224301625	4.500019016400361
C	-3.5006984855895453	1.0569063124301623	4.500004226400361
C	-3.635318545589546	-0.3936920375698376	4.499984026400361
C	-4.956226675589545	-0.9554634175698378	4.500015716400362
C	-2.2377159755895457	1.6277789224301624	4.499998066400361
C	-1.071627785589546	0.8312682624301624	4.499998646400361
C	-1.2063256155895459	-0.6194056675698376	4.499996976400361
C	-2.4991478455895457	-1.1872075975698375	4.499997076400361
N	0.13210855441045408	1.4216826024301623	4.4999989264003615
C	1.206438304410454	0.6195754424301625	4.500000126400361
C	1.0715459544104542	-0.8310817575698377	4.499995736400361
N	-0.13203193558954587	-1.4208447275698375	4.500000106400361
C	2.499359834410454	1.1874937324301624	4.500007716400361
C	3.635470464410454	0.39365665243016235	4.5000057964003615
C	3.5005418944104543	-1.0569136075698378	4.499989696400362
C	2.2375609844104543	-1.6274604175698375	4.500010006400362
C	4.9565207244104545	0.9551564524301625	4.499982096400362
C	6.058764964410455	0.15603729243016254	4.499997086400361
C	5.926184114410455	-1.2701822675698375	4.5000193764003615
C	4.695424944410454	-1.8523489675698377	4.499991266400361
H	-2.1097874355895456	2.7052528724301625	4.500012726400361
H	-4.595260155589545	2.9331630424301625	4.500000066400362
H	-6.820536215589545	1.8844642424301625	4.499993346400362
H	-7.0507752955895455	-0.5964138575698374	4.500016246400361
H	-5.056382475589546	-2.0365128475698375	4.499986116400361
H	-2.5720414355895462	-2.2696737375698377	4.500006766400361
H	2.1094261444104543	-2.7047891875698378	4.499998756400362
H	4.594608424410454	-2.933328117569838	4.500011266400361
H	6.820225434410454	-1.8852094175698375	4.499994726400361
H	7.050946584410454	0.5956020624301623	4.500015086400361
H	5.056977324410454	2.0362400424301623	4.499991836400361
H	2.572478114410454	2.2700668324301625	4.500000226400362
