68
101b cofacial 3.5A
C	-6.058669952101022	-0.1566703756014678	-3.863599614739771e-06
C	-5.926397772101022	1.2695783443985322	-9.94359961473977e-06
C	-4.695771342101022	1.8520971243985322	1.901640038526023e-05
C	-3.500698062101022	1.056906114398532	4.22640038526023e-06
C	-3.6353181221010225	-0.3936922356014678	-1.5973599614739772e-05
C	-4.956226252101022	-0.955463615601468	1.571640038526023e-05
C	-2.2377155521010224	1.6277787243985322	-1.9335996147397707e-06
C	-1.0716273621010226	0.8312680643985322	-1.3535996147397705e-06
C	-1.2063251921010225	-0.6194058656014678	-3.0235996147397704e-06
C	-2.4991474221010224	-1.1872077956014677	-2.9235996147397705e-06
N	0.13210897789897746	1.421682404398532	-1.0735996147397707e-06
C	1.2064387278989774	0.6195752443985323	1.2640038526022937e-07
C	1.0715463778989776	-0.8310819556014679	-4.263599614739771e-06
N	-0.13203151210102249	-1.4208449256014677	1.0640038526022935e-07
C	2.4993602578989775	1.1874935343985322	7.71640038526023e-06
C	3.635470887898977	0.39365645439853214	5.796400385260229e-06
C	3.5005423178989776	-1.056913805601468	-1.030359961473977e-05
C	2.2375614078989776	-1.6274606156014677	1.0006400385260228e-05
C	4.956521147898978	0.9551562543985322	-1.7903599614739772e-05
C	6.058765387898978	0.1560370943985323	-2.9135996147397706e-06
C	5.926184537898978	-1.2701824656014677	1.937640038526023e-05
C	4.695425367898977	-1.852349165601468	-8.733599614739772e-06
H	-2.1097870121010223	2.7052526743985323	1.272640038526023e-05
H	-4.595259732101022	2.9331628443985323	6.64003852602293e-08
H	-6.820535792101022	1.8844640443985323	-6.653599614739771e-06
H	-7.050774872101022	-0.5964140556014677	1.6246400385260228e-05
H	-5.056382052101022	-2.0365130456014677	-1.3883599614739771e-05
H	-2.572041012101023	-2.269673935601468	6.766400385260229e-06
H	2.1094265678989776	-2.704789385601468	-1.2435996147397708e-06
H	4.594608847898978	-2.933328315601468	1.126640038526023e-05
H	6.820225857898977	-1.8852096156014677	-5.273599614739771e-06
H	7.050947007898977	0.5956018643985321	1.5086400385260229e-05
H	5.056977747898977	2.036239844398532	-8.16359961473977e-06
H	2.572478537898977	2.2700666343985323	2.2640038526022936e-07
C	-6.0586702814809845	-0.1566702215768665	3.4999961364003664
C	-5.926398101480984	1.2695784984231335	3.4999900564003665
C	-4.695771671480984	1.8520972784231335	3.5000190164003664
C	-3.5006983914809844	1.0569062684231334	3.5000042264003666
C	-3.635318451480985	-0.3936920815768665	3.4999840264003668
C	-4.956226581480984	-0.9554634615768667	3.5000157164003665
C	-2.2377158814809848	1.6277788784231335	3.4999980664003667
C	-1.0716276914809852	0.8312682184231335	3.4999986464003667
C	-1.2063255214809852	-0.6194057115768665	3.4999969764003667
C	-2.499147751480985	-1.1872076415768664	3.4999970764003665
N	0.13210864851901483	1.4216825584231334	3.499998926400367
C	1.2064383985190148	0.6195753984231336	3.5000001264003666
C	1.071546048519015	-0.8310818015768666	3.4999957364003667
N	-0.13203184148098512	-1.4208447715768664	3.5000001064003667
C	2.499359928519015	1.1874936884231335	3.5000077164003667
C	3.635470558519015	0.39365660842313344	3.500005796400367
C	3.500541988519015	-1.0569136515768667	3.4999896964003665
C	2.237561078519015	-1.6274604615768664	3.5000100064003665
C	4.9565208185190155	0.9551564084231335	3.4999820964003665
C	6.058765058519016	0.1560372484231336	3.4999970864003664
C	5.9261842085190155	-1.2701823115768665	3.5000193764003664
C	4.695425038519015	-1.8523490115768666	3.4999912664003667
H	-2.1097873414809847	2.7052528284231334	3.5000127264003664
H	-4.595260061480984	2.9331629984231333	3.5000000664003665
H	-6.820536121480984	1.8844641984231336	3.4999933464003665
H	-7.050775201480985	-0.5964139015768664	3.500016246400367
H	-5.056382381480985	-2.0365128915768667	3.4999861164003665
H	-2.5720413414809853	-2.269673781576867	3.5000067664003667
H	2.1094262385190152	-2.704789231576867	3.4999987564003665
H	4.594608518519015	-2.933328161576867	3.5000112664003664
H	6.820225528519015	-1.8852094615768664	3.4999947264003666
H	7.050946678519015	0.5956020184231334	3.5000150864003667
H	5.056977418519015	2.036239998423133	3.499991836400367
H	2.5724782085190148	2.2700667884231334	3.5000002264003665
