52
n09 PD long
C	-3.702423758110701	-0.6085502962302825	-1.573162685149785e-05
C	-3.6570122681107016	0.8388904737697176	1.771837314850215e-05
C	-2.409341938110701	1.5091653837697176	2.385837314850215e-05
C	-1.2568550281107014	0.7608734737697176	1.4998373148502151e-05
C	-1.3020282881107013	-0.6812650162302825	-1.4981626851497848e-05
C	-2.4992266381107013	-1.3558217162302826	-2.318162685149785e-05
C	0.04668808188929874	1.4933073237697174	6.837314850215129e-08
C	1.3019245718892987	0.6809074237697176	-1.4351626851497849e-05
C	1.2569356418892987	-0.7612364562302825	1.661837314850215e-05
C	-0.046701038110701254	-1.4937040562302826	4.983731485021513e-07
C	2.498960931889299	1.3556387537697177	-2.604162685149785e-05
C	3.7023286518892986	0.6087422137697176	-1.823162685149785e-05
C	3.6571195418892986	-0.8387047862302826	1.660837314850215e-05
C	2.4095954218892985	-1.5093621762302825	2.538837314850215e-05
N	4.946023411889299	1.1040787937697176	-1.3491626851497849e-05
S	5.952896241889299	-0.18612802623028246	1.8183731485021514e-06
N	4.867438641889299	-1.4108559862302823	1.3198373148502152e-05
N	-4.867260458110701	1.4111375037697176	1.3398373148502152e-05
S	-5.952884628110701	0.18650104376971754	-4.016268514978487e-07
N	-4.946183118110701	-1.1037856562302824	-1.412162685149785e-05
O	0.08471019188929879	2.7097050137697174	-1.2162685149784872e-07
O	-0.08472187811070125	-2.710095016230283	-4.251626851497849e-06
H	-2.356275158110701	2.5904070837697173	1.048837314850215e-05
H	-2.514257668110701	-2.438255856230282	-1.0131626851497848e-05
H	2.5137200018892987	2.4381105237697174	-1.1231626851497848e-05
H	2.3568024818892988	-2.5905818762302824	1.0778373148502151e-05
C	0.17857950109730003	-0.7299943799772813	3.4999840103545323
C	0.22399099109729936	0.7174463900227187	3.5000174603545324
C	1.4716613210972997	1.3877213000227187	3.5000236003545324
C	2.6241482310973	0.6394293900227187	3.5000147403545325
C	2.5789749710972996	-0.8027090999772813	3.4999847603545327
C	1.3817766210972995	-1.4772657999772816	3.4999765603545323
C	3.9276913410972996	1.3718632400227184	3.4999998103545327
C	5.182927831097299	0.5594633400227187	3.4999853903545324
C	5.137938901097299	-0.8826805399772814	3.5000163603545325
C	3.8343022210972997	-1.6151481399772816	3.5000002403545327
C	6.379964191097299	1.2341946700227187	3.4999737003545324
C	7.583331911097299	0.4872981300227187	3.4999815103545324
C	7.538122801097299	-0.9601488699772814	3.5000163503545325
C	6.290598681097299	-1.6308062599772815	3.5000251303545324
N	8.8270266710973	0.9826347100227187	3.4999862503545325
S	9.8338995010973	-0.30757210997728135	3.5000015603545327
N	8.7484419010973	-1.5323000699772813	3.5000129403545324
N	-0.9862571989027004	1.2896934200227186	3.5000131403545325
S	-2.0718813689027002	0.06505696002271864	3.4999993403545324
N	-1.0651798589027004	-1.2252297399772814	3.4999856203545323
O	3.9657134510973	2.588260930022719	3.4999996203545325
O	3.7962813810973	-2.8315390999772814	3.4999954903545327
H	1.5247281010972997	2.4689630000227187	3.5000102303545324
H	1.3667455910972997	-2.5596999399772806	3.4999896103545325
H	6.394723261097299	2.316666440022719	3.4999885103545325
H	6.237805741097299	-2.712025959977281	3.5000105203545324
