52
n09 PD short
C	-3.702423758110701	-0.6085502962302825	-1.573162685149785e-05
C	-3.6570122681107016	0.8388904737697176	1.771837314850215e-05
C	-2.409341938110701	1.5091653837697176	2.385837314850215e-05
C	-1.2568550281107014	0.7608734737697176	1.4998373148502151e-05
C	-1.3020282881107013	-0.6812650162302825	-1.4981626851497848e-05
C	-2.4992266381107013	-1.3558217162302826	-2.318162685149785e-05
C	0.04668808188929874	1.4933073237697174	6.837314850215129e-08
C	1.3019245718892987	0.6809074237697176	-1.4351626851497849e-05
C	1.2569356418892987	-0.7612364562302825	1.661837314850215e-05
C	-0.046701038110701254	-1.4937040562302826	4.983731485021513e-07
C	2.498960931889299	1.3556387537697177	-2.604162685149785e-05
C	3.7023286518892986	0.6087422137697176	-1.823162685149785e-05
C	3.6571195418892986	-0.8387047862302826	1.660837314850215e-05
C	2.4095954218892985	-1.5093621762302825	2.538837314850215e-05
N	4.946023411889299	1.1040787937697176	-1.3491626851497849e-05
S	5.952896241889299	-0.18612802623028246	1.8183731485021514e-06
N	4.867438641889299	-1.4108559862302823	1.3198373148502152e-05
N	-4.867260458110701	1.4111375037697176	1.3398373148502152e-05
S	-5.952884628110701	0.18650104376971754	-4.016268514978487e-07
N	-4.946183118110701	-1.1037856562302824	-1.412162685149785e-05
O	0.08471019188929879	2.7097050137697174	-1.2162685149784872e-07
O	-0.08472187811070125	-2.710095016230283	-4.251626851497849e-06
H	-2.356275158110701	2.5904070837697173	1.048837314850215e-05
H	-2.514257668110701	-2.438255856230282	-1.0131626851497848e-05
H	2.5137200018892987	2.4381105237697174	-1.1231626851497848e-05
H	2.3568024818892988	-2.5905818762302824	1.0778373148502151e-05
C	-3.7695337870211993	-2.7532105815102716	3.499983937143963
C	-3.7241222970212	-1.3057698115102716	3.5000173871439633
C	-2.4764519670211995	-0.6354949015102714	3.5000235271439633
C	-1.3239650570212003	-1.3837868115102716	3.5000146671439634
C	-1.3691383170212001	-2.825925301510271	3.499984687143963
C	-2.5663366670212	-3.5004820015102713	3.499976487143963
C	-0.02042194702120001	-0.6513529615102717	3.499999737143963
C	1.2348145429787998	-1.4637528615102717	3.499985317143963
C	1.1898256129787999	-2.9058967415102717	3.5000162871439633
C	-0.1138110670212	-3.6383643415102713	3.500000167143963
C	2.4318509029788005	-0.7890215315102714	3.499973627143963
C	3.6352186229788	-1.5359180715102716	3.4999814371439633
C	3.5900095129788	-2.9833650715102715	3.5000162771439634
C	2.3424853929788	-3.6540224615102717	3.5000250571439633
N	4.8789133829788	-1.0405814915102716	3.4999861771439633
S	5.8857862129787994	-2.3307883115102714	3.500001487143963
N	4.8003286129788	-3.5555162715102715	3.500012867143963
N	-4.934370487021201	-0.7335227815102715	3.5000130671439633
S	-6.019994657021201	-1.9581592415102718	3.4999992671439633
N	-5.0132931470212005	-3.2484459415102713	3.499985547143963
O	0.017600162978800044	0.5650447284897283	3.4999995471439633
O	-0.1518319070212	-4.854755301510273	3.499995417143963
H	-2.4233851870211995	0.44574679848972815	3.5000101571439632
H	-2.5813676970211996	-4.582916141510272	3.4999895371439633
H	2.4466099729788002	0.29345023848972823	3.4999884371439633
H	2.2896924529788003	-4.735242161510272	3.5000104471439633
