52
n09 cofacial 5.0A
C	-3.702423758110701	-0.6085502962302825	-1.573162685149785e-05
C	-3.6570122681107016	0.8388904737697176	1.771837314850215e-05
C	-2.409341938110701	1.5091653837697176	2.385837314850215e-05
C	-1.2568550281107014	0.7608734737697176	1.4998373148502151e-05
C	-1.3020282881107013	-0.6812650162302825	-1.4981626851497848e-05
C	-2.4992266381107013	-1.3558217162302826	-2.318162685149785e-05
C	0.04668808188929874	1.4933073237697174	6.837314850215129e-08
C	1.3019245718892987	0.6809074237697176	-1.4351626851497849e-05
C	1.2569356418892987	-0.7612364562302825	1.661837314850215e-05
C	-0.046701038110701254	-1.4937040562302826	4.983731485021513e-07
C	2.498960931889299	1.3556387537697177	-2.604162685149785e-05
C	3.7023286518892986	0.6087422137697176	-1.823162685149785e-05
C	3.6571195418892986	-0.8387047862302826	1.660837314850215e-05
C	2.4095954218892985	-1.5093621762302825	2.538837314850215e-05
N	4.946023411889299	1.1040787937697176	-1.3491626851497849e-05
S	5.952896241889299	-0.18612802623028246	1.8183731485021514e-06
N	4.867438641889299	-1.4108559862302823	1.3198373148502152e-05
N	-4.867260458110701	1.4111375037697176	1.3398373148502152e-05
S	-5.952884628110701	0.18650104376971754	-4.016268514978487e-07
N	-4.946183118110701	-1.1037856562302824	-1.412162685149785e-05
O	0.08471019188929879	2.7097050137697174	-1.2162685149784872e-07
O	-0.08472187811070125	-2.710095016230283	-4.251626851497849e-06
H	-2.356275158110701	2.5904070837697173	1.048837314850215e-05
H	-2.514257668110701	-2.438255856230282	-1.0131626851497848e-05
H	2.5137200018892987	2.4381105237697174	-1.1231626851497848e-05
H	2.3568024818892988	-2.5905818762302824	1.0778373148502151e-05
C	-3.7024234501641127	-0.608551078084867	4.999984268373077
C	-3.6570119601641133	0.8388896919151331	5.000017718373077
C	-2.409341630164113	1.5091646019151332	5.000023858373077
C	-1.2568547201641134	0.7608726919151331	5.000014998373078
C	-1.3020279801641133	-0.681265798084867	4.999985018373078
C	-2.499226330164113	-1.355822498084867	4.999976818373077
C	0.04668838983588681	1.493306541915133	5.000000068373078
C	1.3019248798358867	0.6809066419151331	4.999985648373078
C	1.2569359498358867	-0.761237238084867	5.000016618373078
C	-0.046700730164113184	-1.493704838084867	5.000000498373077
C	2.498961239835887	1.3556379719151332	4.999973958373078
C	3.702328959835887	0.6087414319151331	4.999981768373077
C	3.657119849835887	-0.8387055680848671	5.000016608373078
C	2.4095957298358868	-1.5093629580848669	5.000025388373078
N	4.946023719835887	1.1040780119151332	4.999986508373078
S	5.952896549835887	-0.18612880808486695	5.000001818373078
N	4.867438949835887	-1.4108567680848667	5.000013198373077
N	-4.867260150164113	1.4111367219151332	5.000013398373078
S	-5.952884320164113	0.18650026191513305	4.999999598373077
N	-4.946182810164113	-1.1037864380848668	4.999985878373077
O	0.08471049983588685	2.7097042319151328	4.999999878373077
O	-0.08472157016411319	-2.7100957980848674	4.9999957483730775
H	-2.356274850164113	2.5904063019151327	5.000010488373078
H	-2.514257360164113	-2.4382566380848667	4.999989868373078
H	2.513720309835887	2.4381097419151327	4.999988768373077
H	2.356802789835887	-2.590582658084867	5.000010778373078
