52
n09 TS90.0
C	-3.702423758110701	-0.6085502962302825	-1.573162685149785e-05
C	-3.6570122681107016	0.8388904737697176	1.771837314850215e-05
C	-2.409341938110701	1.5091653837697176	2.385837314850215e-05
C	-1.2568550281107014	0.7608734737697176	1.4998373148502151e-05
C	-1.3020282881107013	-0.6812650162302825	-1.4981626851497848e-05
C	-2.4992266381107013	-1.3558217162302826	-2.318162685149785e-05
C	0.04668808188929874	1.4933073237697174	6.837314850215129e-08
C	1.3019245718892987	0.6809074237697176	-1.4351626851497849e-05
C	1.2569356418892987	-0.7612364562302825	1.661837314850215e-05
C	-0.046701038110701254	-1.4937040562302826	4.983731485021513e-07
C	2.498960931889299	1.3556387537697177	-2.604162685149785e-05
C	3.7023286518892986	0.6087422137697176	-1.823162685149785e-05
C	3.6571195418892986	-0.8387047862302826	1.660837314850215e-05
C	2.4095954218892985	-1.5093621762302825	2.538837314850215e-05
N	4.946023411889299	1.1040787937697176	-1.3491626851497849e-05
S	5.952896241889299	-0.18612802623028246	1.8183731485021514e-06
N	4.867438641889299	-1.4108559862302823	1.3198373148502152e-05
N	-4.867260458110701	1.4111375037697176	1.3398373148502152e-05
S	-5.952884628110701	0.18650104376971754	-4.016268514978487e-07
N	-4.946183118110701	-1.1037856562302824	-1.412162685149785e-05
O	0.08471019188929879	2.7097050137697174	-1.2162685149784872e-07
O	-0.08472187811070125	-2.710095016230283	-4.251626851497849e-06
H	-2.356275158110701	2.5904070837697173	1.048837314850215e-05
H	-2.514257668110701	-2.438255856230282	-1.0131626851497848e-05
H	2.5137200018892987	2.4381105237697174	-1.1231626851497848e-05
H	2.3568024818892988	-2.5905818762302824	1.0778373148502151e-05
C	-0.022629562420822032	-0.7236985515947171	5.854226118397249
C	0.022630357463264906	0.7237469612925279	5.854344759798811
C	0.044798403139652845	1.4323698433880718	7.080440961610485
C	0.02254203837447454	0.7208375729994217	8.255767870514687
C	-0.022555360418341948	-0.7213032908310947	8.255721506717139
C	-0.04480582895865701	-1.4326260329259703	7.080206511469006
C	0.046728970983065804	1.493304571538076	9.535765414628296
C	0.02257457365381454	0.720938906207722	10.81579669848972
C	-0.022583733503819835	-0.7211996736941836	10.815934743092917
C	-0.0467407779050715	-1.4937042854517844	9.535844730332068
C	0.044850223168657645	1.432430421410343	11.991144321202102
C	0.02267059022993637	0.7238832637771948	13.21728350594242
C	-0.022657583030673865	-0.7235600105276953	13.217367340383225
C	-0.0448523552178985	-1.432559961152184	11.991429239612023
N	0.03936734046354276	1.2576146195692748	14.444877511278065
S	3.391480359963046e-06	0.00014626062554500338	15.491610686531878
N	-0.039356428833910315	-1.2573158109068618	14.44498911178039
N	0.03933999462394477	1.257600472880021	4.626790866500264
S	8.039461116985634e-06	0.00022381714574129212	3.5799999414548145
N	-0.03932955846834535	-1.2573306072577284	4.626564378875562
O	0.08479257080100372	2.709700963253655	9.53572447023207
O	-0.08479922850870025	-2.710094068555854	9.535886733617291
H	0.07866473676706612	2.5142123567737147	7.099664510067694
H	-0.07867191274095617	-2.5144707932642025	7.099037400153966
H	0.07868937090879227	2.514305144556542	11.972040428638284
H	-0.0786897669093838	-2.51437281065942	11.972478709106493
