52
n09 cofacial 3.5A
C	-3.702423758110701	-0.6085502962302825	-1.573162685149785e-05
C	-3.6570122681107016	0.8388904737697176	1.771837314850215e-05
C	-2.409341938110701	1.5091653837697176	2.385837314850215e-05
C	-1.2568550281107014	0.7608734737697176	1.4998373148502151e-05
C	-1.3020282881107013	-0.6812650162302825	-1.4981626851497848e-05
C	-2.4992266381107013	-1.3558217162302826	-2.318162685149785e-05
C	0.04668808188929874	1.4933073237697174	6.837314850215129e-08
C	1.3019245718892987	0.6809074237697176	-1.4351626851497849e-05
C	1.2569356418892987	-0.7612364562302825	1.661837314850215e-05
C	-0.046701038110701254	-1.4937040562302826	4.983731485021513e-07
C	2.498960931889299	1.3556387537697177	-2.604162685149785e-05
C	3.7023286518892986	0.6087422137697176	-1.823162685149785e-05
C	3.6571195418892986	-0.8387047862302826	1.660837314850215e-05
C	2.4095954218892985	-1.5093621762302825	2.538837314850215e-05
N	4.946023411889299	1.1040787937697176	-1.3491626851497849e-05
S	5.952896241889299	-0.18612802623028246	1.8183731485021514e-06
N	4.867438641889299	-1.4108559862302823	1.3198373148502152e-05
N	-4.867260458110701	1.4111375037697176	1.3398373148502152e-05
S	-5.952884628110701	0.18650104376971754	-4.016268514978487e-07
N	-4.946183118110701	-1.1037856562302824	-1.412162685149785e-05
O	0.08471019188929879	2.7097050137697174	-1.2162685149784872e-07
O	-0.08472187811070125	-2.710095016230283	-4.251626851497849e-06
H	-2.356275158110701	2.5904070837697173	1.048837314850215e-05
H	-2.514257668110701	-2.438255856230282	-1.0131626851497848e-05
H	2.5137200018892987	2.4381105237697174	-1.1231626851497848e-05
H	2.3568024818892988	-2.5905818762302824	1.0778373148502151e-05
C	-3.702423542548089	-0.6085508435284915	3.499984268373099
C	-3.65701205254809	0.8388899264715085	3.500017718373099
C	-2.4093417225480893	1.5091648364715085	3.500023858373099
C	-1.2568548125480898	0.7608729264715085	3.5000149983730986
C	-1.3020280725480897	-0.6812655635284915	3.4999850183730987
C	-2.4992264225480896	-1.3558222635284918	3.499976818373099
C	0.04668829745191039	1.4933067764715082	3.5000000683730987
C	1.3019247874519102	0.6809068764715085	3.499985648373099
C	1.2569358574519103	-0.7612370035284916	3.500016618373099
C	-0.046700822548089604	-1.4937046035284918	3.500000498373099
C	2.4989611474519107	1.3556382064715085	3.499973958373099
C	3.7023288674519104	0.6087416664715085	3.499981768373099
C	3.6571197574519103	-0.8387053335284916	3.5000166083730986
C	2.4095956374519103	-1.5093627235284917	3.500025388373099
N	4.94602362745191	1.1040782464715084	3.4999865083730985
S	5.95289645745191	-0.1861285735284916	3.5000018183730988
N	4.86743885745191	-1.4108565335284915	3.500013198373099
N	-4.86726024254809	1.4111369564715084	3.5000133983730985
S	-5.95288441254809	0.1865004964715084	3.499999598373099
N	-4.94618290254809	-1.1037862035284915	3.499985878373099
O	0.08471040745191044	2.7097044664715084	3.4999998783730986
O	-0.0847216625480896	-2.710095563528492	3.499995748373099
H	-2.3562749425480893	2.5904065364715083	3.500010488373099
H	-2.5142574525480894	-2.438256403528491	3.4999898683730986
H	2.5137202174519104	2.4381099764715084	3.4999887683730986
H	2.3568026974519105	-2.5905824235284913	3.500010778373099
