96
108i_H_capped TS45.0
N	-4.845653152915214	0.00813518391891166	2.5428903824130773e-05
C	-4.034696672915214	1.1552817439189116	-0.0001801110961758692
C	-2.7032044129152135	0.7200405839189116	0.00022266890382413078
C	-2.7052916929152135	-0.7100607760810886	-6.990109617586922e-05
C	-4.038064732915214	-1.1413720360810884	-4.461096175869226e-06
C	-4.257664122915214	2.5431527439189114	0.00012209890382413078
C	-3.1546835629152135	3.4091830539189116	-0.00013867109617586923
C	-1.7946740129152134	2.9722212239189116	0.00021242890382413077
C	-1.6387520729152136	1.5916817239189116	-0.00019944109617586923
C	-1.6432906829152136	-1.5847165260810883	-4.586109617586922e-05
C	-4.265021292915214	-2.5285882760810883	2.157890382413077e-05
C	-3.1645019829152137	-3.3977207860810887	-5.896109617586922e-05
C	-1.8031301529152137	-2.9648741160810888	9.129890382413078e-05
C	-0.6802891929152137	3.9488162639189115	-9.112109617586923e-05
C	0.6925528070847863	3.9459853639189117	6.309890382413077e-05
C	1.8031244670847864	2.9648715239189114	-8.379109617586923e-05
C	-0.6925451629152136	-3.945967576081088	-7.220109617586923e-05
C	0.6802967770847863	-3.948834196081089	8.803890382413077e-05
C	1.7946682970847863	-2.972218916081088	-0.00022054109617586923
C	1.6432927970847864	1.5847151439189116	3.6638903824130776e-05
C	3.1644975870847865	3.3977215539189114	4.830890382413078e-05
C	4.265018667084786	2.5285900239189116	-8.821096175869226e-06
C	4.038066147084786	1.1413730139189115	-9.571096175869225e-06
C	2.7052929370847862	0.7100606739189116	8.619890382413078e-05
N	4.845652377084786	-0.008135536081088413	-2.3561096175869227e-05
C	2.7032053170847865	-0.7200401560810885	-0.00022388109617586924
C	4.034697397084786	-1.1552829560810887	0.00018435890382413077
C	3.1546795870847864	-3.4091827660810887	0.00015616890382413079
C	1.6387546070847865	-1.5916805860810883	0.00020419890382413077
C	4.257663037084786	-2.5431545660810886	-0.00013050109617586923
H	-5.851473642915214	0.009605973918911603	7.488903824130774e-06
H	5.851473487084786	-0.009605796081088469	-8.551096175869225e-06
H	-0.6789801029152137	1.1393834739189115	1.258903824130774e-06
H	-0.6824097729152138	-1.1346297460810884	-1.2801096175869225e-05
H	0.6789798470847863	-1.1393851960810886	-1.0191096175869226e-05
H	0.6824099070847862	1.1346306939189117	1.3998903824130775e-05
H	-5.259011742915214	2.9625011139189112	-4.031096175869226e-06
H	-3.3570370529152136	4.476704013918912	1.0718903824130774e-05
H	-1.0726751429152137	4.965303753918912	9.068903824130774e-06
H	1.0891879170847862	4.960732273918912	-2.401096175869226e-06
H	3.3699192270847864	4.464645293918911	-1.4911096175869225e-05
H	5.267558037084786	2.9450852139189116	-1.5391096175869225e-05
H	5.259011277084786	-2.9625012460810884	4.3489038241307746e-06
H	3.3570384270847864	-4.476702786081089	-1.8721096175869226e-05
H	1.0726766870847864	-4.965315296081088	-7.021096175869226e-06
H	-1.0891860929152135	-4.960720886081089	6.858903824130774e-06
H	-3.3699189229152138	-4.4646457360810885	1.1788903824130774e-05
H	-5.267559642915214	-2.9450849860810884	1.1478903824130775e-05
N	-3.4264069549167493	0.004824721680133886	3.2590583099994803
C	-2.8520437833172614	1.1525230803373956	3.8304523154511663
C	-1.9111166141186973	0.7181928223203623	4.77295958718153
C	-1.9133626953276786	-0.7119081673480205	4.773635366412055
C	-2.8561186122000484	-1.1441290512679894	3.8319826851427874
C	-3.0089714541212267	2.540240057999338	3.670715707949218
C	-2.2282686113604897	3.4070220055388254	4.44902593421029
C	-1.2671412599423741	2.970990475228654	5.41166421475534
C	-1.1575394808366763	1.5905590061454868	5.523902983691325
C	-1.1630274390247353	-1.5858370297029205	5.526040957512274
C	-3.017567636628846	-2.5314980723051574	3.6738068674518027
C	-2.239918045393989	-3.399877564038588	4.453365877211498
C	-1.277091158157046	-2.9661013809433965	5.415390892488487
C	-0.47826858317132087	3.948344696306856	6.197825850633312
C	0.49236850823199685	3.946451845418767	7.168682816746364
C	1.2770966126285526	2.966097959457835	7.955487659806486
C	-0.4923418690708322	-3.9464349052255545	6.202193382601175
C	0.47829089873132313	-3.948363466169066	7.173054621981685
C	1.2671577415261213	-2.970989022504226	7.95920326323728
C	1.1630502396324893	1.585834795951214	7.844831278308558
C	2.2399372553550223	3.399877473477999	8.917500740648142
C	3.0175715455165038	2.531499001561677	9.697077553736925
C	2.8561443206186254	1.144129169101328	9.538885650628815
C	1.913366836309655	0.7119072550895315	8.597254297481577
N	3.4264198708921096	-0.004825909117159653	10.111819722403796
C	1.911132896451975	-0.7181932336907947	8.597917453982614
C	2.852056076458083	-1.1525251228231195	9.540428461941886
C	2.2282682129773645	-3.407022529384593	8.921860886480918
C	1.157552694825666	-1.5905586965574103	7.846979430310259
C	3.008991411855596	-2.5402427325838612	9.700154845689298
H	-4.1376173564142675	0.005608402394840556	2.547822644207062
H	4.137632782976142	-0.005609064241570382	10.82305375390426
H	-0.47932760311188105	1.1389174293818063	6.203450271731427
H	-0.48329638435781	-1.1350945332686888	6.204765591701859
H	0.4793485225800953	-1.1389200042736314	7.167420493872601
H	0.4833104184501886	1.135094645346198	7.1661126082612805
H	-3.7166570618558206	2.9589035298676274	2.9618771471057728
H	-2.3707307774215316	4.474403283019532	4.304285832660213
H	-0.7551043689468733	4.964562692524869	5.918762250358004
H	0.773572092749479	4.961467972507727	7.447425551061285
H	2.385966228205238	4.466939733007035	9.060951061420683
H	3.7267647193708706	2.948678353110034	10.40528646538402
H	3.716671293197608	-2.958904499649623	10.409000008121666
H	2.370752193884279	-4.474402905268773	9.066586738268777
H	0.7551187904899335	-4.964575068062401	7.452117568262783
H	-0.7735591616733184	-4.9614574139157686	5.923456131859085
H	-2.385949020161079	-4.466941017936062	4.309924206341434
H	-3.7267483028331347	-2.94867897064778	2.9655868920884694
