96
108i_H_capped PD long+short
N	-4.845653152915214	0.00813518391891166	2.5428903824130773e-05
C	-4.034696672915214	1.1552817439189116	-0.0001801110961758692
C	-2.7032044129152135	0.7200405839189116	0.00022266890382413078
C	-2.7052916929152135	-0.7100607760810886	-6.990109617586922e-05
C	-4.038064732915214	-1.1413720360810884	-4.461096175869226e-06
C	-4.257664122915214	2.5431527439189114	0.00012209890382413078
C	-3.1546835629152135	3.4091830539189116	-0.00013867109617586923
C	-1.7946740129152134	2.9722212239189116	0.00021242890382413077
C	-1.6387520729152136	1.5916817239189116	-0.00019944109617586923
C	-1.6432906829152136	-1.5847165260810883	-4.586109617586922e-05
C	-4.265021292915214	-2.5285882760810883	2.157890382413077e-05
C	-3.1645019829152137	-3.3977207860810887	-5.896109617586922e-05
C	-1.8031301529152137	-2.9648741160810888	9.129890382413078e-05
C	-0.6802891929152137	3.9488162639189115	-9.112109617586923e-05
C	0.6925528070847863	3.9459853639189117	6.309890382413077e-05
C	1.8031244670847864	2.9648715239189114	-8.379109617586923e-05
C	-0.6925451629152136	-3.945967576081088	-7.220109617586923e-05
C	0.6802967770847863	-3.948834196081089	8.803890382413077e-05
C	1.7946682970847863	-2.972218916081088	-0.00022054109617586923
C	1.6432927970847864	1.5847151439189116	3.6638903824130776e-05
C	3.1644975870847865	3.3977215539189114	4.830890382413078e-05
C	4.265018667084786	2.5285900239189116	-8.821096175869226e-06
C	4.038066147084786	1.1413730139189115	-9.571096175869225e-06
C	2.7052929370847862	0.7100606739189116	8.619890382413078e-05
N	4.845652377084786	-0.008135536081088413	-2.3561096175869227e-05
C	2.7032053170847865	-0.7200401560810885	-0.00022388109617586924
C	4.034697397084786	-1.1552829560810887	0.00018435890382413077
C	3.1546795870847864	-3.4091827660810887	0.00015616890382413079
C	1.6387546070847865	-1.5916805860810883	0.00020419890382413077
C	4.257663037084786	-2.5431545660810886	-0.00013050109617586923
H	-5.851473642915214	0.009605973918911603	7.488903824130774e-06
H	5.851473487084786	-0.009605796081088469	-8.551096175869225e-06
H	-0.6789801029152137	1.1393834739189115	1.258903824130774e-06
H	-0.6824097729152138	-1.1346297460810884	-1.2801096175869225e-05
H	0.6789798470847863	-1.1393851960810886	-1.0191096175869226e-05
H	0.6824099070847862	1.1346306939189117	1.3998903824130775e-05
H	-5.259011742915214	2.9625011139189112	-4.031096175869226e-06
H	-3.3570370529152136	4.476704013918912	1.0718903824130774e-05
H	-1.0726751429152137	4.965303753918912	9.068903824130774e-06
H	1.0891879170847862	4.960732273918912	-2.401096175869226e-06
H	3.3699192270847864	4.464645293918911	-1.4911096175869225e-05
H	5.267558037084786	2.9450852139189116	-1.5391096175869225e-05
H	5.259011277084786	-2.9625012460810884	4.3489038241307746e-06
H	3.3570384270847864	-4.476702786081089	-1.8721096175869226e-05
H	1.0726766870847864	-4.965315296081088	-7.021096175869226e-06
H	-1.0891860929152135	-4.960720886081089	6.858903824130774e-06
H	-3.3699189229152138	-4.4646457360810885	1.1788903824130774e-05
H	-5.267559642915214	-2.9450849860810884	1.1478903824130775e-05
N	-1.3769897249937293	-3.03158753178352	3.500021402779096
C	-0.5660332449937285	-1.8844409717835202	3.4998158627790965
C	0.7654590150062716	-2.3196821317835203	3.5002186427790964
C	0.7633717350062715	-3.7497834917835204	3.4999260727790964
C	-0.5694013049937291	-4.18109475178352	3.499991512779096
C	-0.789000694993729	-0.49656997178352036	3.500118072779096
C	0.31397986500627156	0.36946033821647983	3.4998573027790965
C	1.6739894150062715	-0.06750149178352016	3.5002084027790965
C	1.8299113550062713	-1.4480409917835202	3.4997965327790963
C	1.8253727450062713	-4.624439241783519	3.4999501127790964
C	-0.7963578649937287	-5.56831099178352	3.5000175527790964
C	0.30416144500627135	-6.4374435017835205	3.499937012779096
C	1.6655332750062712	-6.0045968317835205	3.5000872727790964
C	2.7883742350062715	0.9090935482164797	3.499904852779096
C	4.161216235006272	0.90626264821648	3.5000590727790963
C	5.2717878950062715	-0.0748511917835204	3.4999121827790964
C	2.7761182650062715	-6.985690291783519	3.499923772779096
C	4.148960205006271	-6.98855691178352	3.500084012779096
C	5.263331725006272	-6.011941631783519	3.499775432779096
C	5.111956225006272	-1.4550075717835202	3.5000326127790964
C	6.633161015006272	0.3579988382164796	3.5000442827790965
C	7.733682095006271	-0.5111326917835202	3.4999871527790964
C	7.506729575006271	-1.8983497017835202	3.499986402779096
C	6.173956365006272	-2.32966204178352	3.5000821727790963
N	8.31431580500627	-3.0478582517835204	3.4999724127790963
C	6.171868745006272	-3.7597628717835203	3.4997720927790965
C	7.503360825006271	-4.1950056717835205	3.500180332779096
C	6.623343015006271	-6.4489054817835205	3.5001521427790965
C	5.107418035006272	-4.63140330178352	3.5002001727790963
C	7.726326465006271	-5.58287728178352	3.499865472779096
H	-2.3828102149937287	-3.03011674178352	3.5000034627790964
H	9.32013691500627	-3.04932851178352	3.499987422779096
H	2.7896833250062714	-1.9003392417835203	3.4999972327790965
H	2.7862536550062713	-4.17435246178352	3.499983172779096
H	4.1476432750062715	-4.17910791178352	3.4999857827790963
H	4.151073335006271	-1.90509202178352	3.5000099727790963
H	-1.790348314993729	-0.07722160178352055	3.499991942779096
H	0.11162637500627143	1.4369812982164802	3.5000066927790963
H	2.3959882850062715	1.92558103821648	3.500005042779096
H	4.557851345006271	1.92100955821648	3.4999935727790965
H	6.838582655006271	1.4249225782164796	3.499981062779096
H	8.73622146500627	-0.09463750178352015	3.4999805827790964
H	8.72767470500627	-6.00222396178352	3.5000003227790963
H	6.825701855006272	-7.51642550178352	3.499977252779096
H	4.541340115006272	-8.00503801178352	3.499988952779096
H	2.3794773350062717	-8.000443601783521	3.500002832779096
H	0.09874450500627124	-7.504368451783519	3.5000077627790964
H	-1.7988962149937289	-5.984807701783519	3.500007452779096
