96
108i_H_capped TL90.0
N	-4.845653152915214	0.00813518391891166	2.5428903824130773e-05
C	-4.034696672915214	1.1552817439189116	-0.0001801110961758692
C	-2.7032044129152135	0.7200405839189116	0.00022266890382413078
C	-2.7052916929152135	-0.7100607760810886	-6.990109617586922e-05
C	-4.038064732915214	-1.1413720360810884	-4.461096175869226e-06
C	-4.257664122915214	2.5431527439189114	0.00012209890382413078
C	-3.1546835629152135	3.4091830539189116	-0.00013867109617586923
C	-1.7946740129152134	2.9722212239189116	0.00021242890382413077
C	-1.6387520729152136	1.5916817239189116	-0.00019944109617586923
C	-1.6432906829152136	-1.5847165260810883	-4.586109617586922e-05
C	-4.265021292915214	-2.5285882760810883	2.157890382413077e-05
C	-3.1645019829152137	-3.3977207860810887	-5.896109617586922e-05
C	-1.8031301529152137	-2.9648741160810888	9.129890382413078e-05
C	-0.6802891929152137	3.9488162639189115	-9.112109617586923e-05
C	0.6925528070847863	3.9459853639189117	6.309890382413077e-05
C	1.8031244670847864	2.9648715239189114	-8.379109617586923e-05
C	-0.6925451629152136	-3.945967576081088	-7.220109617586923e-05
C	0.6802967770847863	-3.948834196081089	8.803890382413077e-05
C	1.7946682970847863	-2.972218916081088	-0.00022054109617586923
C	1.6432927970847864	1.5847151439189116	3.6638903824130776e-05
C	3.1644975870847865	3.3977215539189114	4.830890382413078e-05
C	4.265018667084786	2.5285900239189116	-8.821096175869226e-06
C	4.038066147084786	1.1413730139189115	-9.571096175869225e-06
C	2.7052929370847862	0.7100606739189116	8.619890382413078e-05
N	4.845652377084786	-0.008135536081088413	-2.3561096175869227e-05
C	2.7032053170847865	-0.7200401560810885	-0.00022388109617586924
C	4.034697397084786	-1.1552829560810887	0.00018435890382413077
C	3.1546795870847864	-3.4091827660810887	0.00015616890382413079
C	1.6387546070847865	-1.5916805860810883	0.00020419890382413077
C	4.257663037084786	-2.5431545660810886	-0.00013050109617586923
H	-5.851473642915214	0.009605973918911603	7.488903824130774e-06
H	5.851473487084786	-0.009605796081088469	-8.551096175869225e-06
H	-0.6789801029152137	1.1393834739189115	1.258903824130774e-06
H	-0.6824097729152138	-1.1346297460810884	-1.2801096175869225e-05
H	0.6789798470847863	-1.1393851960810886	-1.0191096175869226e-05
H	0.6824099070847862	1.1346306939189117	1.3998903824130775e-05
H	-5.259011742915214	2.9625011139189112	-4.031096175869226e-06
H	-3.3570370529152136	4.476704013918912	1.0718903824130774e-05
H	-1.0726751429152137	4.965303753918912	9.068903824130774e-06
H	1.0891879170847862	4.960732273918912	-2.401096175869226e-06
H	3.3699192270847864	4.464645293918911	-1.4911096175869225e-05
H	5.267558037084786	2.9450852139189116	-1.5391096175869225e-05
H	5.259011277084786	-2.9625012460810884	4.3489038241307746e-06
H	3.3570384270847864	-4.476702786081089	-1.8721096175869226e-05
H	1.0726766870847864	-4.965315296081088	-7.021096175869226e-06
H	-1.0891860929152135	-4.960720886081089	6.858903824130774e-06
H	-3.3699189229152138	-4.4646457360810885	1.1788903824130774e-05
H	-5.267559642915214	-2.9450849860810884	1.1478903824130775e-05
N	-4.845654478860825	0.011282461889468763	-7.836409322604935
C	-4.03737626574445	0.009601870976071554	-6.6873752975925775
C	-2.704877514411865	0.0060896805273768645	-7.119511167713466
C	-2.703630114963105	0.0063793404935656986	-8.549613507513165
C	-4.035390544280277	0.009421586778949392	-8.98403068843319
C	-4.263578742019166	0.009827507625257477	-5.300027872991706
C	-3.1626225443046176	0.007519177619787661	-4.431428538485792
C	-1.801602526127501	0.003992112432285983	-4.865218591589462
C	-1.6424620310996716	0.004032626398391984	-6.245390839271406
C	-1.6395958595878621	0.003872357714558665	-9.42179103832464
C	-4.259111922779307	0.009917604491209948	-10.371772262392037
C	-3.156572209200561	0.007425348830700519	-11.238336770522787
C	-1.7962172282931894	0.004100676067284728	-10.80231751143298
C	-0.6894997894137721	0.0017005518979629458	-3.886028240796632
C	0.683340981949987	-0.0016572166891406712	-3.885658627360257
C	1.7961942069689432	-0.00410718893009298	-4.864180726146126
C	-0.6833506820988796	0.0016672827863578655	-11.78081919919801
C	0.6894900984912559	-0.0016965058386660522	-11.780485305804445
C	1.801579499829529	-0.0039830052409601776	-10.801274746072897
C	1.6395806744399621	-0.0038621588176727985	-6.244705971073619
C	3.1565505124127187	-0.007413704734894538	-4.428158104058073
C	4.259091939069666	-0.009929374456639392	-5.294721628065085
C	4.035374664858522	-0.009406576248867288	-6.68246396260339
C	2.703613997284675	-0.006394659490085371	-7.116882223916803
N	4.845636375448773	-0.01128334621295617	-7.830086663533577
C	2.7048610963594832	-0.00608748877529504	-8.546984034510583
C	4.037359658775395	-0.009605138798015004	-8.979121545046649
C	3.1626012029451678	-0.007535684430022666	-11.235066815114617
C	1.642447227452141	-0.004036408429806584	-9.421103649154555
C	4.263560356000963	-0.009818121261316846	-10.366469583865516
H	-5.851472884060065	0.013647496937048451	-7.837283405315827
H	5.851455406246245	-0.013645452712403009	-7.82921204937872
H	-0.6816413109340751	0.0015898337447931817	-6.695450344332402
H	-0.6797695382247538	0.001599525965642737	-8.969465380329689
H	0.68162375591499	-0.0015799193185606485	-8.971047010590112
H	0.679752343340525	-0.0015997424073716739	-6.697029303690873
H	-5.26589824419171	0.012292568215951899	-4.883015083678278
H	-3.3674639862888536	0.007847788334170765	-3.364382226026632
H	-1.0842535688161026	0.002521526537084972	-2.870458282216644
H	1.0776084146231686	-0.002511746521551523	-2.869989799719291
H	3.359483870507173	-0.007824033133847703	-3.360758364056344
H	5.260654898123678	-0.012259969278297748	-4.875890350442406
H	5.265880453882032	-0.012291903265849112	-10.78348068173813
H	3.3674480522134216	-0.007838807692970911	-12.302112175103879
H	1.084237811058569	-0.002522596334688681	-12.796048888482844
H	-1.0776239514625374	0.002508266201869823	-12.796494440389747
H	-3.3595008820710603	0.007828136276099355	-12.30573770956412
H	-5.260673819395668	0.012264866879037849	-10.790605057632662
