96
108i_H_capped cofacial 4.0A
N	-4.845653152915214	0.00813518391891166	2.5428903824130773e-05
C	-4.034696672915214	1.1552817439189116	-0.0001801110961758692
C	-2.7032044129152135	0.7200405839189116	0.00022266890382413078
C	-2.7052916929152135	-0.7100607760810886	-6.990109617586922e-05
C	-4.038064732915214	-1.1413720360810884	-4.461096175869226e-06
C	-4.257664122915214	2.5431527439189114	0.00012209890382413078
C	-3.1546835629152135	3.4091830539189116	-0.00013867109617586923
C	-1.7946740129152134	2.9722212239189116	0.00021242890382413077
C	-1.6387520729152136	1.5916817239189116	-0.00019944109617586923
C	-1.6432906829152136	-1.5847165260810883	-4.586109617586922e-05
C	-4.265021292915214	-2.5285882760810883	2.157890382413077e-05
C	-3.1645019829152137	-3.3977207860810887	-5.896109617586922e-05
C	-1.8031301529152137	-2.9648741160810888	9.129890382413078e-05
C	-0.6802891929152137	3.9488162639189115	-9.112109617586923e-05
C	0.6925528070847863	3.9459853639189117	6.309890382413077e-05
C	1.8031244670847864	2.9648715239189114	-8.379109617586923e-05
C	-0.6925451629152136	-3.945967576081088	-7.220109617586923e-05
C	0.6802967770847863	-3.948834196081089	8.803890382413077e-05
C	1.7946682970847863	-2.972218916081088	-0.00022054109617586923
C	1.6432927970847864	1.5847151439189116	3.6638903824130776e-05
C	3.1644975870847865	3.3977215539189114	4.830890382413078e-05
C	4.265018667084786	2.5285900239189116	-8.821096175869226e-06
C	4.038066147084786	1.1413730139189115	-9.571096175869225e-06
C	2.7052929370847862	0.7100606739189116	8.619890382413078e-05
N	4.845652377084786	-0.008135536081088413	-2.3561096175869227e-05
C	2.7032053170847865	-0.7200401560810885	-0.00022388109617586924
C	4.034697397084786	-1.1552829560810887	0.00018435890382413077
C	3.1546795870847864	-3.4091827660810887	0.00015616890382413079
C	1.6387546070847865	-1.5916805860810883	0.00020419890382413077
C	4.257663037084786	-2.5431545660810886	-0.00013050109617586923
H	-5.851473642915214	0.009605973918911603	7.488903824130774e-06
H	5.851473487084786	-0.009605796081088469	-8.551096175869225e-06
H	-0.6789801029152137	1.1393834739189115	1.258903824130774e-06
H	-0.6824097729152138	-1.1346297460810884	-1.2801096175869225e-05
H	0.6789798470847863	-1.1393851960810886	-1.0191096175869226e-05
H	0.6824099070847862	1.1346306939189117	1.3998903824130775e-05
H	-5.259011742915214	2.9625011139189112	-4.031096175869226e-06
H	-3.3570370529152136	4.476704013918912	1.0718903824130774e-05
H	-1.0726751429152137	4.965303753918912	9.068903824130774e-06
H	1.0891879170847862	4.960732273918912	-2.401096175869226e-06
H	3.3699192270847864	4.464645293918911	-1.4911096175869225e-05
H	5.267558037084786	2.9450852139189116	-1.5391096175869225e-05
H	5.259011277084786	-2.9625012460810884	4.3489038241307746e-06
H	3.3570384270847864	-4.476702786081089	-1.8721096175869226e-05
H	1.0726766870847864	-4.965315296081088	-7.021096175869226e-06
H	-1.0891860929152135	-4.960720886081089	6.858903824130774e-06
H	-3.3699189229152138	-4.4646457360810885	1.1788903824130774e-05
H	-5.267559642915214	-2.9450849860810884	1.1478903824130775e-05
N	-4.845648729705661	0.008134933276876534	4.000025428901371
C	-4.03469224970566	1.1552814932768765	3.999819888901371
C	-2.7031999897056602	0.7200403332768764	4.000222668901371
C	-2.7052872697056602	-0.7100610267231238	3.999930098901371
C	-4.038060309705661	-1.1413722867231235	3.999995538901371
C	-4.257659699705661	2.5431524932768763	4.000122098901371
C	-3.15467913970566	3.4091828032768765	3.999861328901371
C	-1.7946695897056604	2.9722209732768765	4.000212428901371
C	-1.6387476497056606	1.5916814732768765	3.999800558901371
C	-1.6432862597056606	-1.5847167767231234	3.999954138901371
C	-4.2650168697056605	-2.5285885267231234	4.000021578901371
C	-3.1644975597056604	-3.397721036723124	3.9999410389013708
C	-1.8031257297056607	-2.964874366723124	4.000091298901371
C	-0.6802847697056607	3.9488160132768764	3.999908878901371
C	0.6925572302943394	3.9459851132768766	4.000063098901371
C	1.8031288902943394	2.9648712732768763	3.999916208901371
C	-0.6925407397056605	-3.9459678267231233	3.999927798901371
C	0.6803012002943394	-3.948834446723124	4.000088038901371
C	1.7946727202943393	-2.9722191667231233	3.999779458901371
C	1.6432972202943394	1.5847148932768764	4.000036638901371
C	3.1645020102943398	3.3977213032768763	4.000048308901371
C	4.265023090294339	2.5285897732768765	3.999991178901371
C	4.038070570294339	1.1413727632768764	3.999990428901371
C	2.7052973602943395	0.7100604232768765	4.000086198901371
N	4.845656800294339	-0.008135786723123537	3.999976438901371
C	2.70320974029434	-0.7200404067231236	3.999776118901371
C	4.034701820294339	-1.1552832067231238	4.000184358901371
C	3.1546840102943396	-3.409183016723124	4.000156168901371
C	1.6387590302943396	-1.5916808367231234	4.000204198901371
C	4.257667460294339	-2.5431548167231237	3.999869498901371
H	-5.851469219705661	0.009605723276876478	4.000007488901371
H	5.8514779102943395	-0.009606046723123594	3.999991448901371
H	-0.6789756797056606	1.1393832232768764	4.000001258901371
H	-0.6824053497056607	-1.1346299967231235	3.999987198901371
H	0.6789842702943394	-1.1393854467231237	3.999989808901371
H	0.6824143302943393	1.1346304432768766	4.0000139989013705
H	-5.259007319705661	2.962500863276876	3.999995968901371
H	-3.3570326297056603	4.476703763276877	4.000010718901371
H	-1.0726707197056606	4.965303503276877	4.000009068901371
H	1.0891923402943393	4.960732023276877	3.999997598901371
H	3.3699236502943397	4.464645043276876	3.999985088901371
H	5.267562460294339	2.9450849632768765	3.999984608901371
H	5.25901570029434	-2.9625014967231236	4.000004348901371
H	3.3570428502943397	-4.476703036723124	3.999981278901371
H	1.0726811102943394	-4.965315546723123	3.999992978901371
H	-1.0891816697056604	-4.960721136723124	4.000006858901371
H	-3.3699144997056605	-4.464645986723124	4.000011788901371
H	-5.2675552197056605	-2.9450852367231235	4.000011478901371
