96
108i_H_capped cofacial 5.0A
N	-4.845653152915214	0.00813518391891166	2.5428903824130773e-05
C	-4.034696672915214	1.1552817439189116	-0.0001801110961758692
C	-2.7032044129152135	0.7200405839189116	0.00022266890382413078
C	-2.7052916929152135	-0.7100607760810886	-6.990109617586922e-05
C	-4.038064732915214	-1.1413720360810884	-4.461096175869226e-06
C	-4.257664122915214	2.5431527439189114	0.00012209890382413078
C	-3.1546835629152135	3.4091830539189116	-0.00013867109617586923
C	-1.7946740129152134	2.9722212239189116	0.00021242890382413077
C	-1.6387520729152136	1.5916817239189116	-0.00019944109617586923
C	-1.6432906829152136	-1.5847165260810883	-4.586109617586922e-05
C	-4.265021292915214	-2.5285882760810883	2.157890382413077e-05
C	-3.1645019829152137	-3.3977207860810887	-5.896109617586922e-05
C	-1.8031301529152137	-2.9648741160810888	9.129890382413078e-05
C	-0.6802891929152137	3.9488162639189115	-9.112109617586923e-05
C	0.6925528070847863	3.9459853639189117	6.309890382413077e-05
C	1.8031244670847864	2.9648715239189114	-8.379109617586923e-05
C	-0.6925451629152136	-3.945967576081088	-7.220109617586923e-05
C	0.6802967770847863	-3.948834196081089	8.803890382413077e-05
C	1.7946682970847863	-2.972218916081088	-0.00022054109617586923
C	1.6432927970847864	1.5847151439189116	3.6638903824130776e-05
C	3.1644975870847865	3.3977215539189114	4.830890382413078e-05
C	4.265018667084786	2.5285900239189116	-8.821096175869226e-06
C	4.038066147084786	1.1413730139189115	-9.571096175869225e-06
C	2.7052929370847862	0.7100606739189116	8.619890382413078e-05
N	4.845652377084786	-0.008135536081088413	-2.3561096175869227e-05
C	2.7032053170847865	-0.7200401560810885	-0.00022388109617586924
C	4.034697397084786	-1.1552829560810887	0.00018435890382413077
C	3.1546795870847864	-3.4091827660810887	0.00015616890382413079
C	1.6387546070847865	-1.5916805860810883	0.00020419890382413077
C	4.257663037084786	-2.5431545660810886	-0.00013050109617586923
H	-5.851473642915214	0.009605973918911603	7.488903824130774e-06
H	5.851473487084786	-0.009605796081088469	-8.551096175869225e-06
H	-0.6789801029152137	1.1393834739189115	1.258903824130774e-06
H	-0.6824097729152138	-1.1346297460810884	-1.2801096175869225e-05
H	0.6789798470847863	-1.1393851960810886	-1.0191096175869226e-05
H	0.6824099070847862	1.1346306939189117	1.3998903824130775e-05
H	-5.259011742915214	2.9625011139189112	-4.031096175869226e-06
H	-3.3570370529152136	4.476704013918912	1.0718903824130774e-05
H	-1.0726751429152137	4.965303753918912	9.068903824130774e-06
H	1.0891879170847862	4.960732273918912	-2.401096175869226e-06
H	3.3699192270847864	4.464645293918911	-1.4911096175869225e-05
H	5.267558037084786	2.9450852139189116	-1.5391096175869225e-05
H	5.259011277084786	-2.9625012460810884	4.3489038241307746e-06
H	3.3570384270847864	-4.476702786081089	-1.8721096175869226e-05
H	1.0726766870847864	-4.965315296081088	-7.021096175869226e-06
H	-1.0891860929152135	-4.960720886081089	6.858903824130774e-06
H	-3.3699189229152138	-4.4646457360810885	1.1788903824130774e-05
H	-5.267559642915214	-2.9450849860810884	1.1478903824130775e-05
N	-4.845647623903273	0.008134870616367754	5.000025428900758
C	-4.034691143903272	1.1552814306163677	4.999819888900758
C	-2.7031988839032723	0.7200402706163677	5.000222668900758
C	-2.7052861639032724	-0.7100610893836325	4.999930098900758
C	-4.0380592039032726	-1.1413723493836323	4.999995538900758
C	-4.2576585939032725	2.5431524306163675	5.000122098900758
C	-3.1546780339032723	3.4091827406163677	4.999861328900758
C	-1.794668483903272	2.9722209106163677	5.000212428900758
C	-1.6387465439032722	1.5916814106163677	4.999800558900758
C	-1.6432851539032722	-1.5847168393836322	4.999954138900758
C	-4.265015763903272	-2.528588589383632	5.000021578900758
C	-3.1644964539032725	-3.3977210993836326	4.999941038900758
C	-1.8031246239032723	-2.9648744293836327	5.000091298900758
C	-0.6802836639032723	3.9488159506163676	4.999908878900758
C	0.6925583360967277	3.945985050616368	5.000063098900758
C	1.8031299960967277	2.9648712106163675	4.999916208900758
C	-0.6925396339032722	-3.945967889383632	4.9999277989007584
C	0.6803023060967277	-3.948834509383633	5.000088038900758
C	1.7946738260967277	-2.972219229383632	4.9997794589007585
C	1.6432983260967278	1.5847148306163676	5.000036638900758
C	3.1645031160967276	3.3977212406163675	5.000048308900758
C	4.265024196096728	2.5285897106163677	4.999991178900758
C	4.0380716760967275	1.1413727006163676	4.999990428900758
C	2.7052984660967274	0.7100603606163677	5.000086198900759
N	4.8456579060967275	-0.008135849383632317	4.999976438900758
C	2.7032108460967277	-0.7200404693836324	4.999776118900758
C	4.0347029260967275	-1.1552832693836326	5.000184358900758
C	3.1546851160967275	-3.4091830793836326	5.000156168900758
C	1.6387601360967279	-1.5916808993836322	5.000204198900758
C	4.2576685660967275	-2.5431548793836325	4.999869498900758
H	-5.851468113903272	0.009605660616367698	5.000007488900758
H	5.851479016096728	-0.009606109383632374	4.999991448900758
H	-0.6789745739032723	1.1393831606163676	5.000001258900758
H	-0.6824042439032724	-1.1346300593836323	4.999987198900758
H	0.6789853760967277	-1.1393855093836325	4.999989808900758
H	0.6824154360967276	1.1346303806163678	5.000013998900758
H	-5.259006213903272	2.9625008006163673	4.999995968900758
H	-3.3570315239032724	4.476703700616368	5.000010718900758
H	-1.0726696139032723	4.965303440616368	5.000009068900758
H	1.0891934460967276	4.960731960616368	4.999997598900758
H	3.3699247560967276	4.4646449806163675	4.999985088900758
H	5.267563566096728	2.9450849006163677	4.999984608900758
H	5.259016806096728	-2.9625015593836324	5.000004348900758
H	3.3570439560967276	-4.4767030993836325	4.9999812789007585
H	1.0726822160967278	-4.965315609383632	4.9999929789007584
H	-1.0891805639032721	-4.960721199383633	5.0000068589007585
H	-3.3699133939032726	-4.464646049383632	5.000011788900758
H	-5.267554113903272	-2.9450852993836323	5.000011478900758
