96
108i_H_capped cofacial 4.5A
N	-4.845653152915214	0.00813518391891166	2.5428903824130773e-05
C	-4.034696672915214	1.1552817439189116	-0.0001801110961758692
C	-2.7032044129152135	0.7200405839189116	0.00022266890382413078
C	-2.7052916929152135	-0.7100607760810886	-6.990109617586922e-05
C	-4.038064732915214	-1.1413720360810884	-4.461096175869226e-06
C	-4.257664122915214	2.5431527439189114	0.00012209890382413078
C	-3.1546835629152135	3.4091830539189116	-0.00013867109617586923
C	-1.7946740129152134	2.9722212239189116	0.00021242890382413077
C	-1.6387520729152136	1.5916817239189116	-0.00019944109617586923
C	-1.6432906829152136	-1.5847165260810883	-4.586109617586922e-05
C	-4.265021292915214	-2.5285882760810883	2.157890382413077e-05
C	-3.1645019829152137	-3.3977207860810887	-5.896109617586922e-05
C	-1.8031301529152137	-2.9648741160810888	9.129890382413078e-05
C	-0.6802891929152137	3.9488162639189115	-9.112109617586923e-05
C	0.6925528070847863	3.9459853639189117	6.309890382413077e-05
C	1.8031244670847864	2.9648715239189114	-8.379109617586923e-05
C	-0.6925451629152136	-3.945967576081088	-7.220109617586923e-05
C	0.6802967770847863	-3.948834196081089	8.803890382413077e-05
C	1.7946682970847863	-2.972218916081088	-0.00022054109617586923
C	1.6432927970847864	1.5847151439189116	3.6638903824130776e-05
C	3.1644975870847865	3.3977215539189114	4.830890382413078e-05
C	4.265018667084786	2.5285900239189116	-8.821096175869226e-06
C	4.038066147084786	1.1413730139189115	-9.571096175869225e-06
C	2.7052929370847862	0.7100606739189116	8.619890382413078e-05
N	4.845652377084786	-0.008135536081088413	-2.3561096175869227e-05
C	2.7032053170847865	-0.7200401560810885	-0.00022388109617586924
C	4.034697397084786	-1.1552829560810887	0.00018435890382413077
C	3.1546795870847864	-3.4091827660810887	0.00015616890382413079
C	1.6387546070847865	-1.5916805860810883	0.00020419890382413077
C	4.257663037084786	-2.5431545660810886	-0.00013050109617586923
H	-5.851473642915214	0.009605973918911603	7.488903824130774e-06
H	5.851473487084786	-0.009605796081088469	-8.551096175869225e-06
H	-0.6789801029152137	1.1393834739189115	1.258903824130774e-06
H	-0.6824097729152138	-1.1346297460810884	-1.2801096175869225e-05
H	0.6789798470847863	-1.1393851960810886	-1.0191096175869226e-05
H	0.6824099070847862	1.1346306939189117	1.3998903824130775e-05
H	-5.259011742915214	2.9625011139189112	-4.031096175869226e-06
H	-3.3570370529152136	4.476704013918912	1.0718903824130774e-05
H	-1.0726751429152137	4.965303753918912	9.068903824130774e-06
H	1.0891879170847862	4.960732273918912	-2.401096175869226e-06
H	3.3699192270847864	4.464645293918911	-1.4911096175869225e-05
H	5.267558037084786	2.9450852139189116	-1.5391096175869225e-05
H	5.259011277084786	-2.9625012460810884	4.3489038241307746e-06
H	3.3570384270847864	-4.476702786081089	-1.8721096175869226e-05
H	1.0726766870847864	-4.965315296081088	-7.021096175869226e-06
H	-1.0891860929152135	-4.960720886081089	6.858903824130774e-06
H	-3.3699189229152138	-4.4646457360810885	1.1788903824130774e-05
H	-5.267559642915214	-2.9450849860810884	1.1478903824130775e-05
N	-4.845648176804467	0.008134901946622145	4.500025428901065
C	-4.034691696804466	1.155281461946622	4.499819888901064
C	-2.703199436804466	0.720040301946622	4.500222668901064
C	-2.705286716804466	-0.7100610580533782	4.499930098901064
C	-4.038059756804467	-1.141372318053378	4.499995538901064
C	-4.257659146804467	2.543152461946622	4.500122098901064
C	-3.154678586804466	3.409182771946622	4.499861328901065
C	-1.7946690368044662	2.972220941946622	4.500212428901064
C	-1.6387470968044664	1.591681441946622	4.499800558901065
C	-1.6432857068044664	-1.5847168080533778	4.499954138901065
C	-4.265016316804466	-2.528588558053378	4.500021578901064
C	-3.164497006804466	-3.3977210680533783	4.499941038901064
C	-1.8031251768044665	-2.9648743980533783	4.500091298901064
C	-0.6802842168044665	3.948815981946622	4.499908878901064
C	0.6925577831955335	3.9459850819466222	4.500063098901064
C	1.8031294431955336	2.964871241946622	4.499916208901064
C	-0.6925401868044664	-3.9459678580533777	4.499927798901065
C	0.6803017531955335	-3.9488344780533784	4.5000880389010645
C	1.7946732731955335	-2.9722191980533776	4.499779458901065
C	1.6432977731955336	1.584714861946622	4.500036638901064
C	3.164502563195534	3.397721271946622	4.500048308901064
C	4.2650236431955335	2.528589741946622	4.499991178901064
C	4.038071123195533	1.141372731946622	4.499990428901064
C	2.7052979131955337	0.7100603919466221	4.500086198901065
N	4.845657353195533	-0.008135818053377927	4.499976438901064
C	2.703210293195534	-0.720040438053378	4.499776118901065
C	4.034702373195533	-1.1552832380533782	4.500184358901064
C	3.154684563195534	-3.4091830480533782	4.500156168901064
C	1.6387595831955337	-1.5916808680533778	4.500204198901065
C	4.257668013195533	-2.543154848053378	4.499869498901065
H	-5.851468666804466	0.00960569194662209	4.500007488901065
H	5.851478463195534	-0.009606078053377983	4.499991448901064
H	-0.6789751268044665	1.139383191946622	4.500001258901064
H	-0.6824047968044665	-1.1346300280533779	4.4999871989010645
H	0.6789848231955335	-1.139385478053378	4.499989808901065
H	0.6824148831955335	1.1346304119466222	4.500013998901064
H	-5.259006766804466	2.9625008319466217	4.4999959689010645
H	-3.357032076804466	4.476703731946623	4.5000107189010645
H	-1.0726701668044665	4.965303471946623	4.500009068901065
H	1.0891928931955335	4.960731991946623	4.499997598901064
H	3.369924203195534	4.464645011946622	4.499985088901065
H	5.2675630131955336	2.945084931946622	4.499984608901064
H	5.259016253195534	-2.962501528053378	4.500004348901064
H	3.357043403195534	-4.476703068053378	4.499981278901065
H	1.0726816631955336	-4.965315578053377	4.499992978901065
H	-1.0891811168044663	-4.960721168053378	4.500006858901065
H	-3.3699139468044663	-4.464646018053378	4.500011788901064
H	-5.267554666804466	-2.945085268053378	4.500011478901064
