96
108i_H_capped PD short
N	-4.845653152915214	0.00813518391891166	2.5428903824130773e-05
C	-4.034696672915214	1.1552817439189116	-0.0001801110961758692
C	-2.7032044129152135	0.7200405839189116	0.00022266890382413078
C	-2.7052916929152135	-0.7100607760810886	-6.990109617586922e-05
C	-4.038064732915214	-1.1413720360810884	-4.461096175869226e-06
C	-4.257664122915214	2.5431527439189114	0.00012209890382413078
C	-3.1546835629152135	3.4091830539189116	-0.00013867109617586923
C	-1.7946740129152134	2.9722212239189116	0.00021242890382413077
C	-1.6387520729152136	1.5916817239189116	-0.00019944109617586923
C	-1.6432906829152136	-1.5847165260810883	-4.586109617586922e-05
C	-4.265021292915214	-2.5285882760810883	2.157890382413077e-05
C	-3.1645019829152137	-3.3977207860810887	-5.896109617586922e-05
C	-1.8031301529152137	-2.9648741160810888	9.129890382413078e-05
C	-0.6802891929152137	3.9488162639189115	-9.112109617586923e-05
C	0.6925528070847863	3.9459853639189117	6.309890382413077e-05
C	1.8031244670847864	2.9648715239189114	-8.379109617586923e-05
C	-0.6925451629152136	-3.945967576081088	-7.220109617586923e-05
C	0.6802967770847863	-3.948834196081089	8.803890382413077e-05
C	1.7946682970847863	-2.972218916081088	-0.00022054109617586923
C	1.6432927970847864	1.5847151439189116	3.6638903824130776e-05
C	3.1644975870847865	3.3977215539189114	4.830890382413078e-05
C	4.265018667084786	2.5285900239189116	-8.821096175869226e-06
C	4.038066147084786	1.1413730139189115	-9.571096175869225e-06
C	2.7052929370847862	0.7100606739189116	8.619890382413078e-05
N	4.845652377084786	-0.008135536081088413	-2.3561096175869227e-05
C	2.7032053170847865	-0.7200401560810885	-0.00022388109617586924
C	4.034697397084786	-1.1552829560810887	0.00018435890382413077
C	3.1546795870847864	-3.4091827660810887	0.00015616890382413079
C	1.6387546070847865	-1.5916805860810883	0.00020419890382413077
C	4.257663037084786	-2.5431545660810886	-0.00013050109617586923
H	-5.851473642915214	0.009605973918911603	7.488903824130774e-06
H	5.851473487084786	-0.009605796081088469	-8.551096175869225e-06
H	-0.6789801029152137	1.1393834739189115	1.258903824130774e-06
H	-0.6824097729152138	-1.1346297460810884	-1.2801096175869225e-05
H	0.6789798470847863	-1.1393851960810886	-1.0191096175869226e-05
H	0.6824099070847862	1.1346306939189117	1.3998903824130775e-05
H	-5.259011742915214	2.9625011139189112	-4.031096175869226e-06
H	-3.3570370529152136	4.476704013918912	1.0718903824130774e-05
H	-1.0726751429152137	4.965303753918912	9.068903824130774e-06
H	1.0891879170847862	4.960732273918912	-2.401096175869226e-06
H	3.3699192270847864	4.464645293918911	-1.4911096175869225e-05
H	5.267558037084786	2.9450852139189116	-1.5391096175869225e-05
H	5.259011277084786	-2.9625012460810884	4.3489038241307746e-06
H	3.3570384270847864	-4.476702786081089	-1.8721096175869226e-05
H	1.0726766870847864	-4.965315296081088	-7.021096175869226e-06
H	-1.0891860929152135	-4.960720886081089	6.858903824130774e-06
H	-3.3699189229152138	-4.4646457360810885	1.1788903824130774e-05
H	-5.267559642915214	-2.9450849860810884	1.1478903824130775e-05
N	-4.852720258434436	-3.0234806972352692	3.5000252467581996
C	-4.041763778434436	-1.876334137235269	3.4998197067581995
C	-2.710271518434435	-2.311575297235269	3.5002224867581995
C	-2.712358798434435	-3.7416766572352693	3.4999299167581994
C	-4.045131838434436	-4.172987917235269	3.4999953567581996
C	-4.264731228434436	-0.48846313723526924	3.5001219167581996
C	-3.161750668434435	0.37756717276473095	3.4998611467581995
C	-1.8017411184344354	-0.059394657235269044	3.5002122467581995
C	-1.6458191784344356	-1.439934157235269	3.4998003767581998
C	-1.6503577884344356	-4.6163324072352685	3.4999539567581994
C	-4.272088398434436	-5.560204157235268	3.5000213967581995
C	-3.171569088434435	-6.429336667235269	3.4999408567581995
C	-1.8101972584344357	-5.996489997235269	3.5000911167581994
C	-0.6873562984344356	0.9172003827647308	3.4999086967581996
C	0.6854857015655644	0.9143694827647311	3.5000629167581994
C	1.7960573615655644	-0.06674435723526928	3.4999160267581995
C	-0.6996122684344355	-6.977583457235268	3.4999276167581996
C	0.6732296715655645	-6.980450077235269	3.5000878567581997
C	1.7876011915655643	-6.003834797235268	3.4997792767581997
C	1.6362256915655644	-1.4469007372352691	3.5000364567581994
C	3.157430481565565	0.3661056727647307	3.5000481267581995
C	4.257951561565564	-0.503025857235269	3.4999909967581995
C	4.030999041565564	-1.8902428672352691	3.4999902467581996
C	2.6982258315655647	-2.321555207235269	3.5000860167581997
N	4.838585271565564	-3.039751417235269	3.4999762567581993
C	2.696138211565565	-3.751656037235269	3.4997759367581995
C	4.027630291565564	-4.186898837235269	3.5001841767581996
C	3.147612481565565	-6.440798647235269	3.5001559867581995
C	1.6316875015655645	-4.623296467235268	3.5002040167581994
C	4.250595931565564	-5.574770447235269	3.4998693167581996
H	-5.858540748434436	-3.0220099072352693	3.5000073067581994
H	5.844406381565564	-3.0412216772352694	3.4999912667581996
H	-0.6860472084344356	-1.8922324072352692	3.5000010767581995
H	-0.6894768784344356	-4.166245627235269	3.4999870167581997
H	0.6719127415655645	-4.171001077235268	3.4999896267581994
H	0.6753428015655644	-1.896985187235269	3.5000138167582
H	-5.266078848434436	-0.06911476723526944	3.4999957867581997
H	-3.364104158434435	1.4450881327647314	3.5000105367581997
H	-1.0797422484344357	1.933687872764731	3.5000088867581995
H	1.0821208115655643	1.929116392764731	3.4999974167581995
H	3.362852121565565	1.4330294127647307	3.4999849067581996
H	5.260490931565564	-0.08653066723526903	3.4999844267581994
H	5.251944171565564	-5.994117127235269	3.5000041667581994
H	3.349971321565565	-7.508318667235269	3.4999810967581997
H	1.0656095815655644	-7.996931177235268	3.4999927967581996
H	-1.0962531984344355	-7.992336767235269	3.5000066767581997
H	-3.3769860284344353	-7.496261617235269	3.5000116067581994
H	-5.274626748434436	-5.976700867235269	3.5000112967581996
