80
91 PD long
C	-3.769047106882467	2.8992151453951616	4.36437633118049e-06
C	-2.7277577168824667	3.8027040953951614	1.1443763311804898e-06
C	-1.4421483468824672	3.212575545395161	2.5643763311804898e-06
C	-3.3795824168824664	1.5378599253951613	-6.505623668819509e-06
S	-1.6212321868824668	1.4602623453951613	-7.035623668819509e-06
C	-0.21258027688246672	3.876617165395161	1.9043763311804902e-06
C	1.0824546331175333	3.3518327553951615	2.21437633118049e-06
C	2.2956226031175335	4.079387695395161	-3.1756236688195103e-06
S	1.4525170831175334	1.6297642353951614	-2.75562366881951e-06
C	3.1917558931175334	1.8996275653951613	9.39437633118049e-06
C	3.4296635231175334	3.295454425395161	-4.12562366881951e-06
C	4.209194923117533	0.9299351453951612	-1.56562366881951e-06
C	-4.285151506882467	0.4630795753951612	-2.7356236688195103e-06
C	-4.209079116882466	-0.9297797546048385	6.1437633118049e-07
C	4.2852704331175335	-0.46312372460483875	2.49437633118049e-06
C	3.379788783117533	-1.5381329446048388	1.8943763311804898e-06
C	-3.1917416268824663	-1.899324414604839	3.17437633118049e-06
S	-1.452542496882467	-1.6296121146048388	1.04437633118049e-06
C	-3.4298487668824666	-3.2951370646048384	2.15437633118049e-06
C	-2.2958679968824667	-4.079144554604839	2.06437633118049e-06
C	-1.0825772268824672	-3.351720494604839	-6.155623668819509e-06
C	0.21249347311753342	-3.8766503246048387	2.11437633118049e-06
C	1.4421051131175333	-3.2127586846048386	1.73437633118049e-06
S	1.6213673631175332	-1.4604425446048386	4.994376331180491e-06
C	3.7690589631175335	-2.899517374604839	-3.7656236688195098e-06
C	2.7276913231175333	-3.8029591446048387	-4.7562366881951e-07
H	-2.8594753168824667	4.878783485395161	1.1437633118048996e-07
H	-4.8149943168824665	3.1844477353951612	2.3437633118048995e-07
H	-5.312837896882467	0.8214037853951612	2.5243763311804897e-06
H	-5.191631666882467	-1.3979579846048389	8.543763311804899e-07
H	-4.4382205868824665	-3.6933361946048384	4.3437633118048994e-07
H	-2.3092122868824667	-5.163159434604839	-5.7562366881951e-07
H	0.2723848631175332	-4.962891184604839	1.3343763311804901e-06
H	2.8596611531175333	-4.878962744604839	-1.5623668819510036e-08
H	4.814916333117534	-3.1849976746048387	-3.4562366881951e-07
H	5.313022363117533	-0.8214683946048387	5.343763311804899e-07
H	5.191749043117533	1.3982250153951612	1.02437633118049e-06
H	4.437836993117533	3.694069425395161	-1.47562366881951e-06
H	2.3091206431175335	5.163382565395161	2.19437633118049e-06
H	-0.27244489688246665	4.962871365395161	1.38437633118049e-06
C	-0.5919983699215574	3.0869199009055954	3.5000038805809317
C	0.4492910200784428	3.9904088509055953	3.5000006605809317
C	1.7349003900784423	3.400280300905595	3.500002080580932
C	-0.20253367992155694	1.7255646809055953	3.4999930105809316
S	1.5558165500784427	1.6479671009055954	3.4999924805809317
C	2.9644684600784426	4.064321920905595	3.5000014205809316
C	4.259503370078443	3.5395375109055953	3.500001730580932
C	5.472671340078444	4.2670924509055945	3.499996340580932
S	4.629565820078443	1.8174689909055954	3.499996760580932
C	6.3688046300784436	2.087332320905595	3.5000089105809318
C	6.606712260078443	3.483159180905595	3.499995390580932
C	7.386243660078442	1.1176399009055953	3.4999979505809318
C	-1.108102769921557	0.6507843309055951	3.4999967805809318
C	-1.0320303799215569	-0.7420749990944046	3.500000130580932
C	7.462319170078443	-0.27541896909440483	3.500002010580932
C	6.556837520078442	-1.3504281890944048	3.5000014105809316
C	-0.014692889921556837	-1.7116196590944048	3.500002690580932
S	1.7245062400784426	-1.4419073590944047	3.500000560580932
C	-0.25280002992155715	-3.1074323090944045	3.500001670580932
C	0.8811807400784428	-3.891439799094405	3.500001580580932
C	2.094471510078442	-3.1640157390944053	3.4999933605809317
C	3.3895422100784427	-3.688945569094405	3.5000016305809316
C	4.619153850078443	-3.0250539290944047	3.5000012505809317
S	4.798416100078443	-1.2727377890944045	3.500004510580932
C	6.946107700078443	-2.711812619094405	3.499995750580932
C	5.904740060078443	-3.615254389094405	3.499999040580932
H	0.3175734200784428	5.066488240905595	3.4999996305809318
H	-1.637945579921557	3.372152490905595	3.499999750580932
H	-2.1357891599215577	1.0091085409055953	3.500002040580932
H	-2.0145829299215574	-1.2102532290944048	3.5000003705809317
H	-1.261171849921557	-3.5056314390944046	3.4999999505809316
H	0.8678364500784428	-4.975454679094405	3.499998940580932
H	3.4494336000784425	-4.775186429094405	3.500000850580932
H	6.036709890078443	-4.691257989094405	3.4999995005809317
H	7.991965070078443	-2.997292919094405	3.499999170580932
H	8.490071100078442	-0.6337636390944047	3.500000050580932
H	8.368797780078443	1.5859297709055953	3.5000005405809316
H	7.614885730078443	3.881774180905595	3.4999980405809317
H	5.486169380078444	5.351087320905595	3.5000017105809316
H	2.9046038400784426	5.150576120905595	3.5000009005809316
