80
91 PD long+short
C	-3.769047106882467	2.8992151453951616	4.36437633118049e-06
C	-2.7277577168824667	3.8027040953951614	1.1443763311804898e-06
C	-1.4421483468824672	3.212575545395161	2.5643763311804898e-06
C	-3.3795824168824664	1.5378599253951613	-6.505623668819509e-06
S	-1.6212321868824668	1.4602623453951613	-7.035623668819509e-06
C	-0.21258027688246672	3.876617165395161	1.9043763311804902e-06
C	1.0824546331175333	3.3518327553951615	2.21437633118049e-06
C	2.2956226031175335	4.079387695395161	-3.1756236688195103e-06
S	1.4525170831175334	1.6297642353951614	-2.75562366881951e-06
C	3.1917558931175334	1.8996275653951613	9.39437633118049e-06
C	3.4296635231175334	3.295454425395161	-4.12562366881951e-06
C	4.209194923117533	0.9299351453951612	-1.56562366881951e-06
C	-4.285151506882467	0.4630795753951612	-2.7356236688195103e-06
C	-4.209079116882466	-0.9297797546048385	6.1437633118049e-07
C	4.2852704331175335	-0.46312372460483875	2.49437633118049e-06
C	3.379788783117533	-1.5381329446048388	1.8943763311804898e-06
C	-3.1917416268824663	-1.899324414604839	3.17437633118049e-06
S	-1.452542496882467	-1.6296121146048388	1.04437633118049e-06
C	-3.4298487668824666	-3.2951370646048384	2.15437633118049e-06
C	-2.2958679968824667	-4.079144554604839	2.06437633118049e-06
C	-1.0825772268824672	-3.351720494604839	-6.155623668819509e-06
C	0.21249347311753342	-3.8766503246048387	2.11437633118049e-06
C	1.4421051131175333	-3.2127586846048386	1.73437633118049e-06
S	1.6213673631175332	-1.4604425446048386	4.994376331180491e-06
C	3.7690589631175335	-2.899517374604839	-3.7656236688195098e-06
C	2.7276913231175333	-3.8029591446048387	-4.7562366881951e-07
H	-2.8594753168824667	4.878783485395161	1.1437633118048996e-07
H	-4.8149943168824665	3.1844477353951612	2.3437633118048995e-07
H	-5.312837896882467	0.8214037853951612	2.5243763311804897e-06
H	-5.191631666882467	-1.3979579846048389	8.543763311804899e-07
H	-4.4382205868824665	-3.6933361946048384	4.3437633118048994e-07
H	-2.3092122868824667	-5.163159434604839	-5.7562366881951e-07
H	0.2723848631175332	-4.962891184604839	1.3343763311804901e-06
H	2.8596611531175333	-4.878962744604839	-1.5623668819510036e-08
H	4.814916333117534	-3.1849976746048387	-3.4562366881951e-07
H	5.313022363117533	-0.8214683946048387	5.343763311804899e-07
H	5.191749043117533	1.3982250153951612	1.02437633118049e-06
H	4.437836993117533	3.694069425395161	-1.47562366881951e-06
H	2.3091206431175335	5.163382565395161	2.19437633118049e-06
H	-0.27244489688246665	4.962871365395161	1.38437633118049e-06
C	-0.41096040508653986	0.022699232365961955	3.5000045531230772
C	0.6303289849134603	0.9261881823659618	3.5000013331230773
C	1.9159383549134599	0.3360596323659616	3.500002753123077
C	-0.02149571508653938	-1.3386559876340383	3.499993683123077
S	1.7368545149134602	-1.4162535676340382	3.4999931531230772
C	3.14550642491346	1.0001012523659616	3.500002093123077
C	4.44054133491346	0.47531684236596183	3.5000024031230774
C	5.653709304913461	1.2028717823659612	3.4999970131230773
S	4.810603784913461	-1.2467516776340382	3.4999974331230774
C	6.549842594913461	-0.9768883476340383	3.5000095831230773
C	6.787750224913461	0.4189385123659616	3.4999960631230773
C	7.56728162491346	-1.9465807676340383	3.4999986231230773
C	-0.9270648050865395	-2.4134363376340384	3.4999974531230773
C	-0.8509924150865393	-3.8062956676340383	3.5000008031230774
C	7.643357134913461	-3.3396396376340385	3.5000026831230775
C	6.73787548491346	-4.414648857634038	3.500002083123077
C	0.1663450749134607	-4.775840327634039	3.5000033631230774
S	1.90554420491346	-4.5061280276340385	3.5000012331230774
C	-0.07176206508653961	-6.171652977634038	3.5000023431230773
C	1.0622187049134604	-6.955660467634038	3.5000022531230774
C	2.2755094749134597	-6.228236407634038	3.499994033123077
C	3.5705801749134602	-6.753166237634038	3.500002303123077
C	4.800191814913461	-6.089274597634038	3.5000019231230772
S	4.97945406491346	-4.336958457634037	3.5000051831230774
C	7.127145664913461	-5.776033287634038	3.4999964231230773
C	6.085778024913461	-6.679475057634038	3.4999997131230773
H	0.49861138491346035	2.002267572365961	3.5000003031230773
H	-1.4569076150865394	0.3079318223659616	3.5000004231230775
H	-1.95475119508654	-2.0551121276340383	3.5000027131230773
H	-1.8335449650865396	-4.274473897634038	3.5000010431230772
H	-1.0801338850865394	-6.569852107634038	3.500000623123077
H	1.0488744149134603	-8.039675347634038	3.499999613123077
H	3.63047156491346	-7.839407097634038	3.5000015231230774
H	6.21774785491346	-7.755478657634038	3.500000173123077
H	8.173003034913462	-6.061513587634038	3.4999998431230774
H	8.67110906491346	-3.6979843076340386	3.5000007231230774
H	8.54983574491346	-1.4782908976340383	3.500001213123077
H	7.79592369491346	0.8175535123659615	3.499998713123077
H	5.667207344913461	2.2868666523659615	3.500002383123077
H	3.08564180491346	2.0863554523659613	3.500001573123077
