80
91 cofacial 4.0A
C	-3.769047106882467	2.8992151453951616	4.36437633118049e-06
C	-2.7277577168824667	3.8027040953951614	1.1443763311804898e-06
C	-1.4421483468824672	3.212575545395161	2.5643763311804898e-06
C	-3.3795824168824664	1.5378599253951613	-6.505623668819509e-06
S	-1.6212321868824668	1.4602623453951613	-7.035623668819509e-06
C	-0.21258027688246672	3.876617165395161	1.9043763311804902e-06
C	1.0824546331175333	3.3518327553951615	2.21437633118049e-06
C	2.2956226031175335	4.079387695395161	-3.1756236688195103e-06
S	1.4525170831175334	1.6297642353951614	-2.75562366881951e-06
C	3.1917558931175334	1.8996275653951613	9.39437633118049e-06
C	3.4296635231175334	3.295454425395161	-4.12562366881951e-06
C	4.209194923117533	0.9299351453951612	-1.56562366881951e-06
C	-4.285151506882467	0.4630795753951612	-2.7356236688195103e-06
C	-4.209079116882466	-0.9297797546048385	6.1437633118049e-07
C	4.2852704331175335	-0.46312372460483875	2.49437633118049e-06
C	3.379788783117533	-1.5381329446048388	1.8943763311804898e-06
C	-3.1917416268824663	-1.899324414604839	3.17437633118049e-06
S	-1.452542496882467	-1.6296121146048388	1.04437633118049e-06
C	-3.4298487668824666	-3.2951370646048384	2.15437633118049e-06
C	-2.2958679968824667	-4.079144554604839	2.06437633118049e-06
C	-1.0825772268824672	-3.351720494604839	-6.155623668819509e-06
C	0.21249347311753342	-3.8766503246048387	2.11437633118049e-06
C	1.4421051131175333	-3.2127586846048386	1.73437633118049e-06
S	1.6213673631175332	-1.4604425446048386	4.994376331180491e-06
C	3.7690589631175335	-2.899517374604839	-3.7656236688195098e-06
C	2.7276913231175333	-3.8029591446048387	-4.7562366881951e-07
H	-2.8594753168824667	4.878783485395161	1.1437633118048996e-07
H	-4.8149943168824665	3.1844477353951612	2.3437633118048995e-07
H	-5.312837896882467	0.8214037853951612	2.5243763311804897e-06
H	-5.191631666882467	-1.3979579846048389	8.543763311804899e-07
H	-4.4382205868824665	-3.6933361946048384	4.3437633118048994e-07
H	-2.3092122868824667	-5.163159434604839	-5.7562366881951e-07
H	0.2723848631175332	-4.962891184604839	1.3343763311804901e-06
H	2.8596611531175333	-4.878962744604839	-1.5623668819510036e-08
H	4.814916333117534	-3.1849976746048387	-3.4562366881951e-07
H	5.313022363117533	-0.8214683946048387	5.343763311804899e-07
H	5.191749043117533	1.3982250153951612	1.02437633118049e-06
H	4.437836993117533	3.694069425395161	-1.47562366881951e-06
H	2.3091206431175335	5.163382565395161	2.19437633118049e-06
H	-0.27244489688246665	4.962871365395161	1.38437633118049e-06
C	-3.769046551577048	2.8992160561324245	4.000004364376189
C	-2.7277571615770477	3.8027050061324243	4.000001144376189
C	-1.442147791577048	3.212576456132424	4.000002564376189
C	-3.3795818615770474	1.5378608361324242	3.9999934943761892
S	-1.6212316315770476	1.4602632561324242	3.999992964376189
C	-0.21257972157704758	3.876618076132424	4.000001904376189
C	1.0824551884229525	3.3518336661324244	4.000002214376189
C	2.2956231584229525	4.079388606132424	3.999996824376189
S	1.4525176384229526	1.6297651461324243	3.999997244376189
C	3.1917564484229524	1.8996284761324242	4.000009394376189
C	3.4296640784229524	3.295455336132424	3.999995874376189
C	4.209195478422952	0.9299360561324242	3.999998434376189
C	-4.285150951577047	0.4630804861324242	3.999997264376189
C	-4.209078561577047	-0.9297788438675755	4.000000614376189
C	4.285270988422953	-0.46312281386757576	4.000002494376189
C	3.379789338422952	-1.538132033867576	4.000001894376189
C	-3.1917410715770473	-1.899323503867576	4.0000031743761895
S	-1.4525419415770477	-1.6296112038675759	4.000001044376189
C	-3.4298482115770477	-3.2951361538675754	4.0000021543761894
C	-2.2958674415770477	-4.079143643867575	4.000002064376189
C	-1.082576671577048	-3.351719583867576	3.999993844376189
C	0.21249402842295256	-3.8766494138675758	4.000002114376189
C	1.4421056684229525	-3.2127577738675757	4.000001734376189
S	1.6213679184229524	-1.4604416338675756	4.000004994376189
C	3.7690595184229525	-2.899516463867576	3.999996234376189
C	2.7276918784229522	-3.802958233867576	3.999999524376189
H	-2.8594747615770477	4.878784396132424	4.000000114376189
H	-4.814993761577047	3.184448646132424	4.000000234376189
H	-5.312837341577048	0.8214046961324243	4.000002524376189
H	-5.191631111577047	-1.397957073867576	4.000000854376189
H	-4.438220031577047	-3.6933352838675755	4.000000434376189
H	-2.3092117315770477	-5.163158523867575	3.999999424376189
H	0.27238541842295233	-4.9628902738675755	4.000001334376189
H	2.8596617084229523	-4.878961833867575	3.999999984376189
H	4.814916888422953	-3.184996763867576	3.999999654376189
H	5.313022918422952	-0.8214674838675756	4.000000534376189
H	5.191749598422953	1.3982259261324241	4.000001024376189
H	4.437837548422952	3.694070336132424	3.999998524376189
H	2.3091211984229525	5.163383476132425	4.000002194376189
H	-0.2724443415770475	4.962872276132424	4.000001384376189
