80
91 PD short
C	-3.769047106882467	2.8992151453951616	4.36437633118049e-06
C	-2.7277577168824667	3.8027040953951614	1.1443763311804898e-06
C	-1.4421483468824672	3.212575545395161	2.5643763311804898e-06
C	-3.3795824168824664	1.5378599253951613	-6.505623668819509e-06
S	-1.6212321868824668	1.4602623453951613	-7.035623668819509e-06
C	-0.21258027688246672	3.876617165395161	1.9043763311804902e-06
C	1.0824546331175333	3.3518327553951615	2.21437633118049e-06
C	2.2956226031175335	4.079387695395161	-3.1756236688195103e-06
S	1.4525170831175334	1.6297642353951614	-2.75562366881951e-06
C	3.1917558931175334	1.8996275653951613	9.39437633118049e-06
C	3.4296635231175334	3.295454425395161	-4.12562366881951e-06
C	4.209194923117533	0.9299351453951612	-1.56562366881951e-06
C	-4.285151506882467	0.4630795753951612	-2.7356236688195103e-06
C	-4.209079116882466	-0.9297797546048385	6.1437633118049e-07
C	4.2852704331175335	-0.46312372460483875	2.49437633118049e-06
C	3.379788783117533	-1.5381329446048388	1.8943763311804898e-06
C	-3.1917416268824663	-1.899324414604839	3.17437633118049e-06
S	-1.452542496882467	-1.6296121146048388	1.04437633118049e-06
C	-3.4298487668824666	-3.2951370646048384	2.15437633118049e-06
C	-2.2958679968824667	-4.079144554604839	2.06437633118049e-06
C	-1.0825772268824672	-3.351720494604839	-6.155623668819509e-06
C	0.21249347311753342	-3.8766503246048387	2.11437633118049e-06
C	1.4421051131175333	-3.2127586846048386	1.73437633118049e-06
S	1.6213673631175332	-1.4604425446048386	4.994376331180491e-06
C	3.7690589631175335	-2.899517374604839	-3.7656236688195098e-06
C	2.7276913231175333	-3.8029591446048387	-4.7562366881951e-07
H	-2.8594753168824667	4.878783485395161	1.1437633118048996e-07
H	-4.8149943168824665	3.1844477353951612	2.3437633118048995e-07
H	-5.312837896882467	0.8214037853951612	2.5243763311804897e-06
H	-5.191631666882467	-1.3979579846048389	8.543763311804899e-07
H	-4.4382205868824665	-3.6933361946048384	4.3437633118048994e-07
H	-2.3092122868824667	-5.163159434604839	-5.7562366881951e-07
H	0.2723848631175332	-4.962891184604839	1.3343763311804901e-06
H	2.8596611531175333	-4.878962744604839	-1.5623668819510036e-08
H	4.814916333117534	-3.1849976746048387	-3.4562366881951e-07
H	5.313022363117533	-0.8214683946048387	5.343763311804899e-07
H	5.191749043117533	1.3982250153951612	1.02437633118049e-06
H	4.437836993117533	3.694069425395161	-1.47562366881951e-06
H	2.3091206431175335	5.163382565395161	2.19437633118049e-06
H	-0.27244489688246665	4.962871365395161	1.38437633118049e-06
C	-3.5880086561552074	-0.16500472624936688	3.500005036918352
C	-2.546719266155207	0.7384842237506329	3.500001816918352
C	-1.2611098961552076	0.14835567375063277	3.5000032369183525
C	-3.198543966155207	-1.526359946249367	3.4999941669183525
S	-1.4401937361552073	-1.603957526249367	3.499993636918352
C	-0.031541826155207196	0.8123972937506326	3.5000025769183525
C	1.2634930838447929	0.287612883750633	3.5000028869183524
C	2.476661053844793	1.0151678237506323	3.4999974969183523
S	1.633555533844793	-1.434455636249367	3.4999979169183524
C	3.372794343844793	-1.164592306249367	3.5000100669183523
C	3.6107019738447925	0.23123455375063276	3.4999965469183523
C	4.390233373844793	-2.1342847262493674	3.4999991069183523
C	-4.104113056155207	-2.6011402962493673	3.4999979369183523
C	-4.028040666155206	-3.993999626249367	3.5000012869183523
C	4.4663088838447935	-3.5273435962493673	3.5000031669183524
C	3.5608272338447926	-4.602352816249367	3.5000025669183525
C	-3.0107031761552068	-4.963544286249367	3.5000038469183523
S	-1.2715040461552074	-4.693831986249367	3.5000017169183524
C	-3.248810316155207	-6.359356936249367	3.5000028269183523
C	-2.114829546155207	-7.143364426249367	3.5000027369183524
C	-0.9015387761552076	-6.415940366249367	3.499994516918352
C	0.39353192384479296	-6.940870196249366	3.5000027869183525
C	1.6231435638447929	-6.276978556249367	3.500002406918352
S	1.8024058138447927	-4.524662416249367	3.5000056669183524
C	3.950097413844793	-5.963737246249367	3.4999969069183523
C	2.9087297738447924	-6.867179016249367	3.5000001969183523
H	-2.678436866155207	1.8145636137506325	3.5000007869183523
H	-4.6339558661552065	0.12022786375063278	3.5000009069183524
H	-5.131799446155207	-2.2428160862493676	3.5000031969183523
H	-5.010593216155207	-4.462177856249367	3.500001526918352
H	-4.2571821361552065	-6.757556066249367	3.5000011069183525
H	-2.128173836155207	-8.227379306249368	3.5000000969183525
H	0.45342331384479273	-8.027111056249367	3.5000020069183524
H	3.0406996038447924	-7.943182616249367	3.500000656918352
H	4.995954783844794	-6.249217546249366	3.5000003269183524
H	5.494060813844793	-3.885688266249367	3.5000012069183524
H	5.372787493844793	-1.6659948562493672	3.5000016969183525
H	4.618875443844793	0.6298495537506327	3.499999196918352
H	2.490159093844793	2.0991626937506327	3.5000028669183525
H	-0.09140644615520711	1.8986514937506327	3.5000020569183525
