80
91 TL45.0
C	-3.769047106882467	2.8992151453951616	4.36437633118049e-06
C	-2.7277577168824667	3.8027040953951614	1.1443763311804898e-06
C	-1.4421483468824672	3.212575545395161	2.5643763311804898e-06
C	-3.3795824168824664	1.5378599253951613	-6.505623668819509e-06
S	-1.6212321868824668	1.4602623453951613	-7.035623668819509e-06
C	-0.21258027688246672	3.876617165395161	1.9043763311804902e-06
C	1.0824546331175333	3.3518327553951615	2.21437633118049e-06
C	2.2956226031175335	4.079387695395161	-3.1756236688195103e-06
S	1.4525170831175334	1.6297642353951614	-2.75562366881951e-06
C	3.1917558931175334	1.8996275653951613	9.39437633118049e-06
C	3.4296635231175334	3.295454425395161	-4.12562366881951e-06
C	4.209194923117533	0.9299351453951612	-1.56562366881951e-06
C	-4.285151506882467	0.4630795753951612	-2.7356236688195103e-06
C	-4.209079116882466	-0.9297797546048385	6.1437633118049e-07
C	4.2852704331175335	-0.46312372460483875	2.49437633118049e-06
C	3.379788783117533	-1.5381329446048388	1.8943763311804898e-06
C	-3.1917416268824663	-1.899324414604839	3.17437633118049e-06
S	-1.452542496882467	-1.6296121146048388	1.04437633118049e-06
C	-3.4298487668824666	-3.2951370646048384	2.15437633118049e-06
C	-2.2958679968824667	-4.079144554604839	2.06437633118049e-06
C	-1.0825772268824672	-3.351720494604839	-6.155623668819509e-06
C	0.21249347311753342	-3.8766503246048387	2.11437633118049e-06
C	1.4421051131175333	-3.2127586846048386	1.73437633118049e-06
S	1.6213673631175332	-1.4604425446048386	4.994376331180491e-06
C	3.7690589631175335	-2.899517374604839	-3.7656236688195098e-06
C	2.7276913231175333	-3.8029591446048387	-4.7562366881951e-07
H	-2.8594753168824667	4.878783485395161	1.1437633118048996e-07
H	-4.8149943168824665	3.1844477353951612	2.3437633118048995e-07
H	-5.312837896882467	0.8214037853951612	2.5243763311804897e-06
H	-5.191631666882467	-1.3979579846048389	8.543763311804899e-07
H	-4.4382205868824665	-3.6933361946048384	4.3437633118048994e-07
H	-2.3092122868824667	-5.163159434604839	-5.7562366881951e-07
H	0.2723848631175332	-4.962891184604839	1.3343763311804901e-06
H	2.8596611531175333	-4.878962744604839	-1.5623668819510036e-08
H	4.814916333117534	-3.1849976746048387	-3.4562366881951e-07
H	5.313022363117533	-0.8214683946048387	5.343763311804899e-07
H	5.191749043117533	1.3982250153951612	1.02437633118049e-06
H	4.437836993117533	3.694069425395161	-1.47562366881951e-06
H	2.3091206431175335	5.163382565395161	2.19437633118049e-06
H	-0.27244489688246665	4.962871365395161	1.38437633118049e-06
C	-3.715212557624805	1.988009797435897	-3.907345260619519
C	-2.659404049112851	2.645751918846725	-3.3130224766167613
C	-1.3852808364245779	2.2500350839773358	-3.7831941295785096
C	-3.34962088087834	1.0307229988265698	-4.884543035380707
S	-1.5944002307358003	1.0060958745896504	-5.012648030709574
C	-0.1455144901854027	2.7414633293488664	-3.3657416194171623
C	1.139151434471158	2.3921816719343987	-3.7901822877301306
C	2.3636294418442936	2.9283058571558875	-3.3272166500619713
S	1.4791405965325854	1.1791258120976662	-5.0211855594951675
C	3.2212615848613804	1.4002061402837898	-4.903220286003582
C	3.4829964778306177	2.392738936446787	-3.927871036741703
C	4.220941802185389	0.7310947708571972	-5.630141882661716
C	-4.272801159432593	0.25402505178625223	-5.60543598851287
C	-4.220825170724725	-0.7309848489796886	-6.591791965678565
C	4.2729174963748155	-0.25405687666016724	-6.616638338373175
C	3.3498204397608884	-1.030912299895575	-7.337699581980494
C	-3.2212432780784273	-1.400002880185865	-7.318595467400472
S	-1.4791651292791381	-1.179020104550394	-7.2007452450117615
C	-3.4831778391167285	-2.3925187908379844	-8.293936647119708
C	-2.363872135863379	-2.9281399129204186	-8.894640307296319
C	-1.1392738285713448	-2.3921042919610094	-8.431774177036402
C	0.14542567390341943	-2.7414939266020264	-8.856313357839804
C	1.3852329711133393	-2.2501713322230597	-8.43896833400068
S	1.5945303799531392	-1.0062224891561238	-7.209524281074494
C	3.7152175182455465	-1.9882268146353383	-8.314906179491553
C	2.659331655966393	-2.6459369254501177	-8.909192347428975
H	-2.772431142059712	3.4054806413136354	-2.547951549020915
H	-4.755175645624662	2.1719566928540557	-3.6623891180433996
H	-5.293261218365181	0.49003825914614024	-5.309641144463789
H	-5.2104501289559515	-1.0794573343102873	-6.881291080652777
H	-4.497389095742866	-2.691881133282876	-8.532963819977864
H	-2.3958961376097783	-3.695986843926096	-9.659265629922569
H	0.18652443041862374	-3.50965555360458	-9.62556285673075
H	2.7726120051201555	-3.4056072272255444	-9.674220698759456
H	4.755086556553106	-2.1723501678914774	-8.560033929936356
H	5.293442813336787	-0.4900857714756603	-6.912448024475266
H	5.210570372005271	1.0796443407739393	-5.3405620280664605
H	4.497016796756153	2.692391690232631	-3.68854138166616
H	2.395806805739137	3.6961393428221783	-2.5626099336113963
H	-0.18658632814902537	3.5096357820126323	-2.5964847397986057
