44
84l cofacial 3.5A
C	-0.6722959132734998	0.007540389619273169	-4.125517882040142e-06
C	0.6723085467265002	-0.0063286203807269015	4.864482117959859e-06
S	1.6409999167265001	1.4938915696192732	-2.8551788204014145e-07
C	3.2062701067265005	0.6728974796192733	-5.655178820401415e-07
C	3.1914084967265	-0.7389078603807269	4.482117959858531e-09
S	1.6091867467265002	-1.5266641503807268	1.5044821179598586e-06
S	-1.6098763632734998	1.5274142396192731	1.6744821179598584e-06
C	-3.1917416732734996	0.7388369896192732	-3.9551788204014145e-07
C	-3.2059386132735	-0.6729752303807268	-2.3551788204014147e-07
S	-1.6402949132734996	-1.4931555703807269	-8.755178820401415e-07
N	-4.3014217332735	1.4471764296192733	7.744821179598586e-07
C	-5.4497456932735	0.7495173896192732	1.6944821179598587e-06
C	-5.4635505032735	-0.6384234703807268	-3.1455178820401414e-06
N	-4.3295403032735	-1.359069640380727	1.7448211795985854e-07
N	4.3303177967265	1.358200439619273	-3.4155178820401413e-06
C	5.4640416867265005	0.6370709796192732	3.444821179598585e-07
C	5.4492263367265	-0.7508594303807268	-2.415517882040141e-06
N	4.3006265967265005	-1.448030830380727	1.6344821179598584e-06
H	-6.3688165832735	1.3260795496192732	-6.551788204014149e-08
H	-6.3940216132735	-1.196498540380727	-3.2055178820401412e-06
H	6.3947998167265	1.1945515296192732	-2.415517882040141e-06
H	6.3679993767265	-1.3280084903807268	4.344821179598585e-07
C	-0.6722960141447064	0.007540336420712703	3.4999958744821162
C	0.6723084458552936	-0.006328673579287367	3.5000048644821162
S	1.6409998158552936	1.4938915164207127	3.499999714482116
C	3.206270005855294	0.6728974264207128	3.4999994344821164
C	3.1914083958552935	-0.7389079135792873	3.500000004482116
S	1.6091866458552937	-1.5266642035792872	3.500001504482116
S	-1.6098764641447063	1.5274141864207127	3.500001674482116
C	-3.191741774144706	0.7388369364207128	3.4999996044821162
C	-3.2059387141447067	-0.6729752835792873	3.499999764482116
S	-1.6402950141447061	-1.4931556235792873	3.499999124482116
N	-4.301421834144707	1.4471763764207128	3.500000774482116
C	-5.4497457941447065	0.7495173364207127	3.5000016944821164
C	-5.463550604144706	-0.6384235235792872	3.499996854482116
N	-4.329540404144707	-1.3590696935792874	3.5000001744821163
N	4.330317695855293	1.3582003864207126	3.4999965844821164
C	5.464041585855294	0.6370709264207127	3.500000344482116
C	5.449226235855294	-0.7508594835792872	3.499997584482116
N	4.300626495855294	-1.4480308835792874	3.5000016344821163
H	-6.368816684144707	1.3260794964207128	3.499999934482116
H	-6.394021714144706	-1.1964985935792873	3.499996794482116
H	6.394799715855293	1.1945514764207128	3.499997584482116
H	6.3679992758552935	-1.3280085435792872	3.500000434482116
