44
84l TS90.0
C	-0.6722959132734998	0.007540389619273169	-4.125517882040142e-06
C	0.6723085467265002	-0.0063286203807269015	4.864482117959859e-06
S	1.6409999167265001	1.4938915696192732	-2.8551788204014145e-07
C	3.2062701067265005	0.6728974796192733	-5.655178820401415e-07
C	3.1914084967265	-0.7389078603807269	4.482117959858531e-09
S	1.6091867467265002	-1.5266641503807268	1.5044821179598586e-06
S	-1.6098763632734998	1.5274142396192731	1.6744821179598584e-06
C	-3.1917416732734996	0.7388369896192732	-3.9551788204014145e-07
C	-3.2059386132735	-0.6729752303807268	-2.3551788204014147e-07
S	-1.6402949132734996	-1.4931555703807269	-8.755178820401415e-07
N	-4.3014217332735	1.4471764296192733	7.744821179598586e-07
C	-5.4497456932735	0.7495173896192732	1.6944821179598587e-06
C	-5.4635505032735	-0.6384234703807268	-3.1455178820401414e-06
N	-4.3295403032735	-1.359069640380727	1.7448211795985854e-07
N	4.3303177967265	1.358200439619273	-3.4155178820401413e-06
C	5.4640416867265005	0.6370709796192732	3.444821179598585e-07
C	5.4492263367265	-0.7508594303807268	-2.415517882040141e-06
N	4.3006265967265005	-1.448030830380727	1.6344821179598584e-06
H	-6.3688165832735	1.3260795496192732	-6.551788204014149e-08
H	-6.3940216132735	-1.196498540380727	-3.2055178820401412e-06
H	6.3947998167265	1.1945515296192732	-2.415517882040141e-06
H	6.3679993767265	-1.3280084903807268	4.344821179598585e-07
C	1.015740115167922e-05	0.0006109427488338847	8.579810932867485
C	1.0598523223799983e-06	0.0006005543318600557	9.924486917326345
S	0.015569929874945128	1.5106443579454645	10.87766523761957
C	0.007275547320419883	0.7058686347948914	12.451313642493783
C	-0.007276251155562958	-0.7059398983609602	12.451003200758082
S	-0.0155641965977788	-1.5099183607993825	10.876984274408919
S	0.015568141450809828	1.5106610149064437	7.626616121258244
C	0.007275343107608045	0.7058653162304498	6.052962076974209
C	-0.0072760456931351405	-0.7059432505475672	6.053316340844349
S	-0.015561642325322266	-1.5099014645712665	7.6273298491932735
N	0.014456242186125283	1.4026935281118065	4.936040649282384
C	0.007143480413804898	0.6932743490524454	3.7949679061574537
C	-0.007156855797165515	-0.6946614036734219	3.7954682556708095
N	-0.014466489859503606	-1.4035442535756186	4.936845367065263
N	0.014460322280115515	1.4026828430731288	13.568238749444813
C	0.0071452371853529565	0.6933138084223931	14.709334546939267
C	-0.007157178558595628	-0.6946218882726771	14.708824302422904
N	-0.014468073983439154	-1.40355628896876	13.567470768218797
H	0.012989497734777875	1.2603036039719056	2.8700036509890055
H	-0.013006986338172178	-1.2622663286937397	2.870798208916036
H	0.012992091115449316	1.2603272054627876	15.634297725705238
H	-0.013010365877370193	-1.2622410391637933	15.633496772131885
