44
84l TS45.0
C	-0.6722959132734998	0.007540389619273169	-4.125517882040142e-06
C	0.6723085467265002	-0.0063286203807269015	4.864482117959859e-06
S	1.6409999167265001	1.4938915696192732	-2.8551788204014145e-07
C	3.2062701067265005	0.6728974796192733	-5.655178820401415e-07
C	3.1914084967265	-0.7389078603807269	4.482117959858531e-09
S	1.6091867467265002	-1.5266641503807268	1.5044821179598586e-06
S	-1.6098763632734998	1.5274142396192731	1.6744821179598584e-06
C	-3.1917416732734996	0.7388369896192732	-3.9551788204014145e-07
C	-3.2059386132735	-0.6729752303807268	-2.3551788204014147e-07
S	-1.6402949132734996	-1.4931555703807269	-8.755178820401415e-07
N	-4.3014217332735	1.4471764296192733	7.744821179598586e-07
C	-5.4497456932735	0.7495173896192732	1.6944821179598587e-06
C	-5.4635505032735	-0.6384234703807268	-3.1455178820401414e-06
N	-4.3295403032735	-1.359069640380727	1.7448211795985854e-07
N	4.3303177967265	1.358200439619273	-3.4155178820401413e-06
C	5.4640416867265005	0.6370709796192732	3.444821179598585e-07
C	5.4492263367265	-0.7508594303807268	-2.415517882040141e-06
N	4.3006265967265005	-1.448030830380727	1.6344821179598584e-06
H	-6.3688165832735	1.3260795496192732	-6.551788204014149e-08
H	-6.3940216132735	-1.196498540380727	-3.2055178820401412e-06
H	6.3947998167265	1.1945515296192732	-2.415517882040141e-06
H	6.3679993767265	-1.3280084903807268	4.344821179598585e-07
C	-0.47538044079384534	0.005510722194042502	6.585260572043293
C	0.47539210260429815	-0.004299161774472459	7.536096436042881
S	1.1649224983782258	1.498798269834314	8.210091638709455
C	2.2693064064159425	0.6825544182626205	9.322828904175294
C	2.254535292959467	-0.7292518544623641	9.322609800831962
S	1.1333074548320825	-1.5217594922049167	8.209611410115341
S	-1.1337954994258699	1.5225072850589099	5.911254148489013
C	-2.254771239135347	0.7291797627385631	4.798511243989015
C	-2.269072070117975	-0.6826313864833299	4.798761868573285
S	-1.1644213281751574	-1.4980603885714845	5.911757046618239
N	-3.03733077792136	1.434147654199673	4.008729351257618
C	-3.851460680904476	0.7330441605149507	3.2018697318587854
C	-3.86540863139285	-0.6548952241723609	3.2022201189048642
N	-3.0656846510285147	-1.3720959905906878	4.009297966407768
N	3.066233707101035	1.3712289254420078	10.112612201650759
C	3.8657534569050265	0.6535440230516542	10.919491441317435
C	3.8510894761305	-0.7343879470727821	10.919128701254177
N	3.036763817463326	-1.435004625547807	10.112072745820278
H	-4.499628948106394	1.306814195646983	2.5478199865263633
H	-4.525064505267212	-1.215761518367928	2.5483796197014845
H	4.525612492886999	1.2138166615492372	11.57353722211639
H	4.4990445800613355	-1.3087457550494928	11.572972893859738
