44
84l TL90.0
C	-0.6722959132734998	0.007540389619273169	-4.125517882040142e-06
C	0.6723085467265002	-0.0063286203807269015	4.864482117959859e-06
S	1.6409999167265001	1.4938915696192732	-2.8551788204014145e-07
C	3.2062701067265005	0.6728974796192733	-5.655178820401415e-07
C	3.1914084967265	-0.7389078603807269	4.482117959858531e-09
S	1.6091867467265002	-1.5266641503807268	1.5044821179598586e-06
S	-1.6098763632734998	1.5274142396192731	1.6744821179598584e-06
C	-3.1917416732734996	0.7388369896192732	-3.9551788204014145e-07
C	-3.2059386132735	-0.6729752303807268	-2.3551788204014147e-07
S	-1.6402949132734996	-1.4931555703807269	-8.755178820401415e-07
N	-4.3014217332735	1.4471764296192733	7.744821179598586e-07
C	-5.4497456932735	0.7495173896192732	1.6944821179598587e-06
C	-5.4635505032735	-0.6384234703807268	-3.1455178820401414e-06
N	-4.3295403032735	-1.359069640380727	1.7448211795985854e-07
N	4.3303177967265	1.358200439619273	-3.4155178820401413e-06
C	5.4640416867265005	0.6370709796192732	3.444821179598585e-07
C	5.4492263367265	-0.7508594303807268	-2.415517882040141e-06
N	4.3006265967265005	-1.448030830380727	1.6344821179598584e-06
H	-6.3688165832735	1.3260795496192732	-6.551788204014149e-08
H	-6.3940216132735	-1.196498540380727	-3.2055178820401412e-06
H	6.3947998167265	1.1945515296192732	-2.415517882040141e-06
H	6.3679993767265	-1.3280084903807268	4.344821179598585e-07
C	-0.6723020229113209	0.006933457535923628	-5.089387279106991
C	0.6723024526447627	-0.006934043212891793	-5.089397701355697
S	1.625430135673164	-0.016752547423084498	-3.5792735986268447
C	3.1989950019080546	-0.03297061656423425	-4.3840919939820635
C	3.198684633128099	-0.03296798769921917	-5.795975519337092
S	1.6247493235625463	-0.016747320553841014	-6.5999967689754495
S	-1.6254463364401415	0.01675148311810571	-3.5792571045422266
C	-3.199016746490339	0.03297195952282185	-4.384095597013169
C	-3.198662440741674	0.03296814777141495	-5.795979151737009
S	-1.624732486748721	0.016746675778938142	-6.599979990817886
N	-4.315878896891228	0.04448201515148156	-3.687230435418894
C	-5.456891015366132	0.056241228622218746	-4.396687354193116
C	-5.4563905812560485	0.056240911027009295	-5.784696775351957
N	-4.315074091745714	0.04447432025306953	-6.493617260430571
N	4.315860787146745	-0.04447902956704896	-3.687240696659215
C	5.456895973184505	-0.05624316103809946	-4.39664739685683
C	5.456385845500986	-0.05623514312993579	-5.784656783464668
N	4.31509291857999	-0.044476165601301035	-6.493628930399946
H	-6.3818061522328735	0.06577586336946845	-3.8296280049823213
H	-6.381011492752042	0.06577081317485471	-6.352331888157281
H	6.381810030212972	-0.06577326441564688	-3.829603814371522
H	6.381009201197379	-0.06576786061774524	-6.3523060712259465
