44
84l TL45.0
C	-0.6722959132734998	0.007540389619273169	-4.125517882040142e-06
C	0.6723085467265002	-0.0063286203807269015	4.864482117959859e-06
S	1.6409999167265001	1.4938915696192732	-2.8551788204014145e-07
C	3.2062701067265005	0.6728974796192733	-5.655178820401415e-07
C	3.1914084967265	-0.7389078603807269	4.482117959858531e-09
S	1.6091867467265002	-1.5266641503807268	1.5044821179598586e-06
S	-1.6098763632734998	1.5274142396192731	1.6744821179598584e-06
C	-3.1917416732734996	0.7388369896192732	-3.9551788204014145e-07
C	-3.2059386132735	-0.6729752303807268	-2.3551788204014147e-07
S	-1.6402949132734996	-1.4931555703807269	-8.755178820401415e-07
N	-4.3014217332735	1.4471764296192733	7.744821179598586e-07
C	-5.4497456932735	0.7495173896192732	1.6944821179598587e-06
C	-5.4635505032735	-0.6384234703807268	-3.1455178820401414e-06
N	-4.3295403032735	-1.359069640380727	1.7448211795985854e-07
N	4.3303177967265	1.358200439619273	-3.4155178820401413e-06
C	5.4640416867265005	0.6370709796192732	3.444821179598585e-07
C	5.4492263367265	-0.7508594303807268	-2.415517882040141e-06
N	4.3006265967265005	-1.448030830380727	1.6344821179598584e-06
H	-6.3688165832735	1.3260795496192732	-6.551788204014149e-08
H	-6.3940216132735	-1.196498540380727	-3.2055178820401412e-06
H	6.3947998167265	1.1945515296192732	-2.415517882040141e-06
H	6.3679993767265	-1.3280084903807268	4.344821179598585e-07
C	-0.6722976095184006	0.0073643640265942745	-4.1171641636404175
C	0.6723068168243678	-0.006507911542632086	-4.117165192357529
S	1.6364396926249158	1.0514343293643853	-3.049349851801007
C	3.204139347988736	0.4661538130945435	-3.6184426134530154
C	3.193539712195401	-0.5321427828237317	-4.616794625422574
S	1.6137450073557225	-1.0844203140654647	-5.185322423912609
S	-1.6144366524089657	1.0849506895825953	-3.049336764195343
C	-3.193872424263945	0.5320940747592457	-3.6184449650097164
C	-3.203807386980514	-0.466209102640127	-4.616797287667833
S	-1.6357366869070704	-1.0509150583254594	-5.185312204297028
N	-4.305656083243568	1.0363364156283916	-3.1256860430984332
C	-5.451838450088507	0.5464607766830184	-3.6273471772380517
C	-5.461453313955324	-0.43495970580708176	-4.608821473693045
N	-4.325303156920387	-0.9479812157491648	-5.110101621970397
N	4.326083510816495	0.9473666409408659	-3.125696364152134
C	5.4619488223567485	0.4340039314279556	-3.627320007306925
C	5.451323403227125	-0.5474075819143166	-4.608792808536566
N	4.304863770216719	-1.0369397728376208	-5.11010894397398
H	-6.372621079696532	0.9569451377216197	-3.22637689960239
H	-6.390210933603037	-0.8267871146954776	-5.010200142645766
H	6.390995268176978	0.8254120602776011	-3.2263616074993666
H	6.371809955707975	-0.9583068338428475	-5.010179464971902
