48
49_H_capped cofacial 4.5A
C	-1.0863955390194486	-0.8531969770451194	-1.1946816678900417e-05
C	-1.2884444090194487	0.5589736229548806	1.2333183321099583e-05
C	-0.18131460901944862	1.4143402029548806	-8.146816678900417e-06
C	1.0866881709805514	0.8539028529548807	9.403183321099582e-06
C	1.2885757209805513	-0.5582585770451194	-8.926816678900417e-06
C	0.18154202098055128	-1.4135925470451196	9.233183321099584e-06
S	-2.611708899019449	-1.7572565170451195	2.843183321099583e-06
C	-3.5172109990194484	-0.25033240704511944	-2.0168166789004172e-06
C	-2.6918500190194488	0.8570247329548806	-5.068166789004173e-07
S	-3.6278331690194485	2.325693382954881	-2.376816678900417e-06
C	-5.1124836990194495	1.4057312229548804	-9.468166789004173e-07
C	-4.905662009019448	0.05686678295488058	2.2831833210995827e-06
S	2.6124309609805514	1.7574819329548805	8.318332109958263e-08
C	3.5175864109805515	0.25020431295488055	-6.681667890041738e-08
C	2.6917790309805514	-0.8567689870451194	-3.216816678900417e-06
S	3.626848430980551	-2.3259473670451194	-5.668166789004174e-07
C	5.111978240980552	-1.4068128970451195	3.5731833210995826e-06
C	4.905904740980551	-0.05780529704511943	-8.768166789004174e-07
H	-6.056109799019449	1.9311775929548805	7.318332109958262e-08
H	-5.705228729019449	-0.6725346670451194	9.031833210995825e-07
H	0.3155009709805513	-2.4902415770451194	-2.5268166789004174e-06
H	6.055258090980551	-1.9329024870451195	-5.168166789004174e-07
H	5.705904330980552	0.6711160429548806	7.031833210995826e-07
H	-0.31522850901944865	2.4910045029548806	-1.6681667890041738e-07
C	-1.0863954088456282	-0.8531951906931079	4.499988053182964
C	-1.2884442788456283	0.5589754093068922	4.500012333182964
C	-0.18131447884562818	1.4143419893068923	4.499991853182964
C	1.0866883011543718	0.8539046393068922	4.500009403182964
C	1.2885758511543717	-0.5582567906931079	4.499991073182964
C	0.18154215115437172	-1.413590760693108	4.500009233182964
S	-2.611708768845628	-1.757254730693108	4.500002843182964
C	-3.517210868845628	-0.2503306206931079	4.499997983182964
C	-2.691849888845628	0.8570265193068921	4.499999493182964
S	-3.627833038845628	2.3256951693068926	4.499997623182964
C	-5.112483568845629	1.405733009306892	4.499999053182964
C	-4.905661878845628	0.05686856930689214	4.5000022831829645
S	2.612431091154372	1.7574837193068922	4.500000083182964
C	3.517586541154372	0.2502060993068921	4.499999933182964
C	2.691779161154372	-0.8567672006931079	4.499996783182964
S	3.6268485611543717	-2.3259455806931078	4.499999433182964
C	5.111978371154372	-1.4068111106931078	4.500003573182964
C	4.905904871154371	-0.05780351069310787	4.499999123182964
H	-6.056109668845629	1.931179379306892	4.500000073182964
H	-5.705228598845629	-0.6725328806931079	4.500000903182964
H	0.31550110115437174	-2.4902397906931077	4.499997473182964
H	6.0552582211543715	-1.9329007006931078	4.499999483182964
H	5.705904461154372	0.6711178293068921	4.500000703182964
H	-0.3152283788456282	2.4910062893068923	4.499999833182964
