48
49_H_capped PD long+short
C	-1.0863955390194486	-0.8531969770451194	-1.1946816678900417e-05
C	-1.2884444090194487	0.5589736229548806	1.2333183321099583e-05
C	-0.18131460901944862	1.4143402029548806	-8.146816678900417e-06
C	1.0866881709805514	0.8539028529548807	9.403183321099582e-06
C	1.2885757209805513	-0.5582585770451194	-8.926816678900417e-06
C	0.18154202098055128	-1.4135925470451196	9.233183321099584e-06
S	-2.611708899019449	-1.7572565170451195	2.843183321099583e-06
C	-3.5172109990194484	-0.25033240704511944	-2.0168166789004172e-06
C	-2.6918500190194488	0.8570247329548806	-5.068166789004173e-07
S	-3.6278331690194485	2.325693382954881	-2.376816678900417e-06
C	-5.1124836990194495	1.4057312229548804	-9.468166789004173e-07
C	-4.905662009019448	0.05686678295488058	2.2831833210995827e-06
S	2.6124309609805514	1.7574819329548805	8.318332109958263e-08
C	3.5175864109805515	0.25020431295488055	-6.681667890041738e-08
C	2.6917790309805514	-0.8567689870451194	-3.216816678900417e-06
S	3.626848430980551	-2.3259473670451194	-5.668166789004174e-07
C	5.111978240980552	-1.4068128970451195	3.5731833210995826e-06
C	4.905904740980551	-0.05780529704511943	-8.768166789004174e-07
H	-6.056109799019449	1.9311775929548805	7.318332109958262e-08
H	-5.705228729019449	-0.6725346670451194	9.031833210995825e-07
H	0.3155009709805513	-2.4902415770451194	-2.5268166789004174e-06
H	6.055258090980551	-1.9329024870451195	-5.168166789004174e-07
H	5.705904330980552	0.6711160429548806	7.031833210995826e-07
H	-0.31522850901944865	2.4910045029548806	-1.6681667890041738e-07
C	2.232107112689666	-3.2512442913140953	3.4999889091334815
C	2.030058242689666	-1.8390736913140953	3.5000131891334814
C	3.137188042689666	-0.983707111314095	3.4999927091334815
C	4.405190822689666	-1.544144461314095	3.5000102591334814
C	4.607078372689666	-2.956305891314095	3.4999919291334813
C	3.500044672689666	-3.811639861314095	3.5000100891334816
S	0.706793752689666	-4.155303831314096	3.5000036991334813
C	-0.1987083473103336	-2.6483797213140954	3.4999988391334815
C	0.6266526326896661	-1.5410225813140952	3.5000003491334812
S	-0.3093305173103337	-0.07235393131409476	3.4999984791334815
C	-1.7939810473103346	-0.9923160913140953	3.4999999091334812
C	-1.5871593573103329	-2.341180531314095	3.5000031391334816
S	5.930933612689667	-0.6405653813140951	3.500000939133481
C	6.836089062689666	-2.1478430013140954	3.5000007891334812
C	6.010281682689667	-3.2548163013140954	3.4999976391334813
S	6.945351082689666	-4.723994681314095	3.5000002891334816
C	8.430480892689667	-3.8048602113140952	3.5000044291334813
C	8.224407392689667	-2.455852611314095	3.4999999791334813
H	-2.7376071473103343	-0.46686972131409527	3.5000009291334813
H	-2.3867260773103345	-3.070581981314095	3.5000017591334815
H	3.634003622689666	-4.888288891314095	3.4999983291334815
H	9.373760742689667	-4.3309498013140955	3.5000003391334813
H	9.024406982689667	-1.7269312713140952	3.5000015591334814
H	3.003274142689666	0.09295718868590494	3.5000006891334814
