48
49_H_capped PD long
C	-1.0863955390194486	-0.8531969770451194	-1.1946816678900417e-05
C	-1.2884444090194487	0.5589736229548806	1.2333183321099583e-05
C	-0.18131460901944862	1.4143402029548806	-8.146816678900417e-06
C	1.0866881709805514	0.8539028529548807	9.403183321099582e-06
C	1.2885757209805513	-0.5582585770451194	-8.926816678900417e-06
C	0.18154202098055128	-1.4135925470451196	9.233183321099584e-06
S	-2.611708899019449	-1.7572565170451195	2.843183321099583e-06
C	-3.5172109990194484	-0.25033240704511944	-2.0168166789004172e-06
C	-2.6918500190194488	0.8570247329548806	-5.068166789004173e-07
S	-3.6278331690194485	2.325693382954881	-2.376816678900417e-06
C	-5.1124836990194495	1.4057312229548804	-9.468166789004173e-07
C	-4.905662009019448	0.05686678295488058	2.2831833210995827e-06
S	2.6124309609805514	1.7574819329548805	8.318332109958263e-08
C	3.5175864109805515	0.25020431295488055	-6.681667890041738e-08
C	2.6917790309805514	-0.8567689870451194	-3.216816678900417e-06
S	3.626848430980551	-2.3259473670451194	-5.668166789004174e-07
C	5.111978240980552	-1.4068128970451195	3.5731833210995826e-06
C	4.905904740980551	-0.05780529704511943	-8.768166789004174e-07
H	-6.056109799019449	1.9311775929548805	7.318332109958262e-08
H	-5.705228729019449	-0.6725346670451194	9.031833210995825e-07
H	0.3155009709805513	-2.4902415770451194	-2.5268166789004174e-06
H	6.055258090980551	-1.9329024870451195	-5.168166789004174e-07
H	5.705904330980552	0.6711160429548806	7.031833210995826e-07
H	-0.31522850901944865	2.4910045029548806	-1.6681667890041738e-07
C	2.5539814911679644	-1.5365501470380898	3.49998821914527
C	2.3519326211679643	-0.12437954703808954	3.50001249914527
C	3.4590624211679644	0.7309870329619105	3.49999201914527
C	4.727065201167965	0.1705496829619105	3.50000956914527
C	4.928952751167964	-1.2416117470380896	3.49999123914527
C	3.8219190511679644	-2.09694571703809	3.50000939914527
S	1.0286681311679644	-2.44060968703809	3.50000300914527
C	0.12316603116796465	-0.9336855770380895	3.49999814914527
C	0.9485270111679643	0.17367156296191041	3.4999996591452702
S	0.012543861167964576	1.6423402129619107	3.49999778914527
C	-1.4721066688320363	0.7223780529619103	3.49999921914527
C	-1.2652849788320346	-0.6264863870380896	3.50000244914527
S	6.252807991167964	1.0741287629619103	3.50000024914527
C	7.157963441167964	-0.43314885703808964	3.50000009914527
C	6.332156061167964	-1.5401221570380896	3.49999694914527
S	7.267225461167964	-3.0093005370380896	3.49999959914527
C	8.752355271167966	-2.0901660670380897	3.50000373914527
C	8.546281771167966	-0.7411584670380895	3.49999928914527
H	-2.415732768832036	1.2478244229619102	3.50000023914527
H	-2.0648516988320362	-1.3558878370380896	3.50000106914527
H	3.955878001167964	-3.1735947470380896	3.49999763914527
H	9.695635121167966	-2.6162556570380895	3.49999964914527
H	9.346281361167966	-0.01223712703808958	3.50000086914527
H	3.3251485211679643	1.8076513329619104	3.49999999914527
