48
49_H_capped PD short
C	-1.0863955390194486	-0.8531969770451194	-1.1946816678900417e-05
C	-1.2884444090194487	0.5589736229548806	1.2333183321099583e-05
C	-0.18131460901944862	1.4143402029548806	-8.146816678900417e-06
C	1.0866881709805514	0.8539028529548807	9.403183321099582e-06
C	1.2885757209805513	-0.5582585770451194	-8.926816678900417e-06
C	0.18154202098055128	-1.4135925470451196	9.233183321099584e-06
S	-2.611708899019449	-1.7572565170451195	2.843183321099583e-06
C	-3.5172109990194484	-0.25033240704511944	-2.0168166789004172e-06
C	-2.6918500190194488	0.8570247329548806	-5.068166789004173e-07
S	-3.6278331690194485	2.325693382954881	-2.376816678900417e-06
C	-5.1124836990194495	1.4057312229548804	-9.468166789004173e-07
C	-4.905662009019448	0.05686678295488058	2.2831833210995827e-06
S	2.6124309609805514	1.7574819329548805	8.318332109958263e-08
C	3.5175864109805515	0.25020431295488055	-6.681667890041738e-08
C	2.6917790309805514	-0.8567689870451194	-3.216816678900417e-06
S	3.626848430980551	-2.3259473670451194	-5.668166789004174e-07
C	5.111978240980552	-1.4068128970451195	3.5731833210995826e-06
C	4.905904740980551	-0.05780529704511943	-8.768166789004174e-07
H	-6.056109799019449	1.9311775929548805	7.318332109958262e-08
H	-5.705228729019449	-0.6725346670451194	9.031833210995825e-07
H	0.3155009709805513	-2.4902415770451194	-2.5268166789004174e-06
H	6.055258090980551	-1.9329024870451195	-5.168166789004174e-07
H	5.705904330980552	0.6711160429548806	7.031833210995826e-07
H	-0.31522850901944865	2.4910045029548806	-1.6681667890041738e-07
C	-1.4082698162514418	-2.5678897319362273	3.499988743171255
C	-1.6103186862514418	-1.1557191319362272	3.500013023171255
C	-0.5031888862514419	-0.30035255193622706	3.499992543171255
C	0.7648138937485581	-0.860789901936227	3.5000100931712548
C	0.966701443748558	-2.272951331936227	3.499991763171255
C	-0.14033225625144197	-3.128285301936227	3.500009923171255
S	-2.9335831762514424	-3.4719492719362273	3.500003533171255
C	-3.839085276251442	-1.9650251619362271	3.499998673171255
C	-3.013724296251442	-0.857668021936227	3.500000183171255
S	-3.949707446251442	0.6110006280637733	3.499998313171255
C	-5.434357976251443	-0.3089615319362273	3.499999743171255
C	-5.227536286251441	-1.6578259719362272	3.500002973171255
S	2.290556683748558	0.04278917806377288	3.500000773171255
C	3.1957121337485583	-1.4644884419362272	3.500000623171255
C	2.369904753748558	-2.5714617419362273	3.499997473171255
S	3.3049741537485575	-4.040640121936227	3.500000123171255
C	4.7901039637485585	-3.121505651936227	3.500004263171255
C	4.584030463748558	-1.7724980519362272	3.499999813171255
H	-6.377984076251442	0.2164848380637728	3.500000763171255
H	-6.027103006251442	-2.387227421936227	3.500001593171255
H	-0.006373306251441945	-4.204934331936227	3.499998163171255
H	5.733383813748558	-3.6475952419362274	3.500000173171255
H	5.384030053748559	-1.0435767119362271	3.500001393171255
H	-0.6371027862514419	0.776311748063773	3.5000005231712548
