48
49_H_capped TL90.0
C	-1.0863955390194486	-0.8531969770451194	-1.1946816678900417e-05
C	-1.2884444090194487	0.5589736229548806	1.2333183321099583e-05
C	-0.18131460901944862	1.4143402029548806	-8.146816678900417e-06
C	1.0866881709805514	0.8539028529548807	9.403183321099582e-06
C	1.2885757209805513	-0.5582585770451194	-8.926816678900417e-06
C	0.18154202098055128	-1.4135925470451196	9.233183321099584e-06
S	-2.611708899019449	-1.7572565170451195	2.843183321099583e-06
C	-3.5172109990194484	-0.25033240704511944	-2.0168166789004172e-06
C	-2.6918500190194488	0.8570247329548806	-5.068166789004173e-07
S	-3.6278331690194485	2.325693382954881	-2.376816678900417e-06
C	-5.1124836990194495	1.4057312229548804	-9.468166789004173e-07
C	-4.905662009019448	0.05686678295488058	2.2831833210995827e-06
S	2.6124309609805514	1.7574819329548805	8.318332109958263e-08
C	3.5175864109805515	0.25020431295488055	-6.681667890041738e-08
C	2.6917790309805514	-0.8567689870451194	-3.216816678900417e-06
S	3.626848430980551	-2.3259473670451194	-5.668166789004174e-07
C	5.111978240980552	-1.4068128970451195	3.5731833210995826e-06
C	4.905904740980551	-0.05780529704511943	-8.768166789004174e-07
H	-6.056109799019449	1.9311775929548805	7.318332109958262e-08
H	-5.705228729019449	-0.6725346670451194	9.031833210995825e-07
H	0.3155009709805513	-2.4902415770451194	-2.5268166789004174e-06
H	6.055258090980551	-1.9329024870451195	-5.168166789004174e-07
H	5.705904330980552	0.6711160429548806	7.031833210995826e-07
H	-0.31522850901944865	2.4910045029548806	-1.6681667890041738e-07
C	-0.8947083438658816	0.1679604703756971	-6.298269201087583
C	-1.345947648143094	0.2526402806336904	-4.947616777267065
C	-0.4315983640118068	0.08102378243103174	-3.9026758484095403
C	0.8948631866815824	-0.16799118132288435	-4.2195549673641946
C	1.345943901421685	-0.25264727582342006	-5.5702281410128425
C	0.4316819612546087	-0.08104481289676124	-6.615119289879974
S	-2.2041768499248096	0.41375267507342195	-7.468219166696317
C	-3.3521013805495357	0.6292405996869895	-6.154222000503383
C	-2.7556266589910114	0.5172716413222629	-4.913600607119318
S	-3.926058578694035	0.7369815046543342	-3.6428257419779198
C	-5.193362299225311	0.9748723279908729	-4.820903332021567
C	-4.748996757798402	0.8914548375919685	-6.108455768565151
S	2.204832616655155	-0.4138829826346372	-3.049997987255971
C	3.352487321292955	-0.6293151592817535	-4.364406549539935
C	2.75551209654761	-0.5172505801747596	-5.6047330496741115
S	3.925153651551376	-0.7368128735960023	-6.876177475199183
C	5.193069392592545	-0.9748242498221398	-5.6988249430674855
C	4.74940084098298	-0.8915363537565177	-4.41099376819966
H	-6.200146844813037	1.1638601374738915	-4.478569297807976
H	-5.389088407411636	1.0116112277402938	-6.97285066500861
H	0.7563078779172583	-0.14197009376473477	-7.6485718812480705
H	6.199636672613159	-1.1637681516168688	-6.041855036361943
H	5.389997646234979	-1.0117877728324334	-3.5469908786088764
H	-0.756182835535493	0.14194512943437643	-2.869199937758321
