48
49_H_capped TS90.0
C	-1.0863955390194486	-0.8531969770451194	-1.1946816678900417e-05
C	-1.2884444090194487	0.5589736229548806	1.2333183321099583e-05
C	-0.18131460901944862	1.4143402029548806	-8.146816678900417e-06
C	1.0866881709805514	0.8539028529548807	9.403183321099582e-06
C	1.2885757209805513	-0.5582585770451194	-8.926816678900417e-06
C	0.18154202098055128	-1.4135925470451196	9.233183321099584e-06
S	-2.611708899019449	-1.7572565170451195	2.843183321099583e-06
C	-3.5172109990194484	-0.25033240704511944	-2.0168166789004172e-06
C	-2.6918500190194488	0.8570247329548806	-5.068166789004173e-07
S	-3.6278331690194485	2.325693382954881	-2.376816678900417e-06
C	-5.1124836990194495	1.4057312229548804	-9.468166789004173e-07
C	-4.905662009019448	0.05686678295488058	2.2831833210995827e-06
S	2.6124309609805514	1.7574819329548805	8.318332109958263e-08
C	3.5175864109805515	0.25020431295488055	-6.681667890041738e-08
C	2.6917790309805514	-0.8567689870451194	-3.216816678900417e-06
S	3.626848430980551	-2.3259473670451194	-5.668166789004174e-07
C	5.111978240980552	-1.4068128970451195	3.5731833210995826e-06
C	4.905904740980551	-0.05780529704511943	-8.768166789004174e-07
H	-6.056109799019449	1.9311775929548805	7.318332109958262e-08
H	-5.705228729019449	-0.6725346670451194	9.031833210995825e-07
H	0.3155009709805513	-2.4902415770451194	-2.5268166789004174e-06
H	6.055258090980551	-1.9329024870451195	-5.168166789004174e-07
H	5.705904330980552	0.6711160429548806	7.031833210995826e-07
H	-0.31522850901944865	2.4910045029548806	-1.6681667890041738e-07
C	-0.191672760297975	-1.0211468325514463	8.267582419753694
C	0.05748870951003628	0.3063244845033883	7.808465861217663
C	0.25029275561762243	1.3333244001999154	8.738780944193445
C	0.1918137450967318	1.021888561361929	10.088413856242692
C	-0.057357400772896944	-0.3056020516518352	10.547370172232561
C	-0.25014998266078664	-1.3325534698783477	9.617143523252329
S	-0.40753448094887584	-2.171011056305999	6.93524594469748
C	-0.1651070406088952	-0.8795713896705708	5.767270409834655
C	0.0637769676037485	0.3397538666020987	6.3741629975451355
S	0.2982272735585179	1.5887137340579942	5.183287536339175
C	0.08087919986839384	0.43085895540743824	3.8938497912415455
C	-0.15666782812411548	-0.8345904817728552	4.345977671816728
S	0.40759758676672503	2.1713675549929423	11.421261031282901
C	0.165099170876782	0.8795226299281029	12.588961087073203
C	-0.06372881990202858	-0.33951309800373086	11.981558946438916
S	-0.29830342144804267	-1.5891308884789508	13.171630385101388
C	-0.08109458991387543	-0.4319876934885396	14.461691886077563
C	0.15650506233700098	0.8337354723307879	14.010272939822121
H	0.1440362234306279	0.7673162861411564	2.8694808346059357
H	-0.3161409664470491	-1.6841475722564276	3.6947062359636815
H	-0.44080274751517706	-2.348267771535459	9.947437505767791
H	-0.1443770139323951	-0.7691297011553591	15.485839206347379
H	0.3159056817671929	1.6829073222642918	14.662058392034613
H	0.44095353782177626	2.3490609234714195	8.408528421125117
