52
85a cofacial 3.5A
C	-1.516240086584231	0.02300861986892011	-2.9806324971252194e-05
C	-0.711588746584231	1.2300594398689202	4.1903675028747805e-05
C	0.7483455334157689	1.2081144698689201	-4.164632497125219e-05
C	1.516244983415769	-0.022656420131079713	2.4703675028747807e-05
C	0.7115765634157689	-1.2296714301310798	-4.249632497125219e-05
C	-0.7483205765842311	-1.2077254201310796	4.5373675028747804e-05
N	-1.2127282665842312	2.44938166986892	-1.4886324971252193e-05
S	0.053124193415768906	3.5300680898689203	1.4536750287478062e-06
N	1.2859303934157689	2.41181434986892	1.6953675028747805e-05
N	-1.2859094065842311	-2.41142758013108	-1.7246324971252193e-05
N	1.2127193734157689	-2.44899561013108	1.9463675028747807e-05
S	-0.053118106584230995	-3.5296825501310796	1.2736750287478062e-06
C	2.8978361634157688	-0.04374860013107984	-4.156324971252194e-06
C	-2.897835106584231	0.043795379868920126	1.613675028747806e-06
S	3.885208633415769	1.42079571986892	-6.96324971252194e-07
C	5.425650993415769	0.5849689898689201	3.367502874780607e-08
C	5.405199853415769	-0.7496516601310796	-2.776324971252194e-06
S	3.8398907134157687	-1.5379178901310797	-1.986324971252194e-06
S	-3.840333196584231	1.5376532198689201	-1.876324971252194e-06
C	-5.4054229065842305	0.7489116398689202	3.773675028747806e-06
C	-5.425452056584231	-0.5857157801310797	-5.263249712521939e-07
S	-3.884774616584231	-1.4210726701310796	1.4036750287478063e-06
H	-6.277435276584231	1.3903541398689203	-5.96324971252194e-07
H	-6.316348636584231	-1.2006493201310797	3.436750287478061e-07
H	6.316748763415769	1.1996029298689201	1.963675028747806e-06
H	6.277006993415769	-1.3913795701310798	9.367502874780607e-08
C	-1.5162402320046	0.023008757087961396	3.4999701936750234
C	-0.7115888920046	1.2300595770879614	3.500041903675023
C	0.7483453879954	1.2081146070879614	3.4999583536750234
C	1.5162448379953999	-0.022656282912038427	3.5000247036750234
C	0.7115764179954	-1.2296712929120386	3.4999575036750232
C	-0.7483207220046001	-1.2077252829120384	3.5000453736750234
N	-1.2127284120046002	2.4493818070879616	3.4999851136750233
S	0.0531240479953999	3.5300682270879618	3.5000014536750235
N	1.2859302479953998	2.4118144870879616	3.5000169536750234
N	-1.2859095520046002	-2.4114274429120384	3.4999827536750234
N	1.2127192279953998	-2.4489954729120385	3.5000194636750233
S	-0.0531182520046	-3.529682412912038	3.5000012736750232
C	2.8978360179953997	-0.04374846291203856	3.4999958436750234
C	-2.8978352520046	0.04379551708796141	3.5000016136750234
S	3.8852084879954	1.4207958570879613	3.499999303675023
C	5.4256508479954	0.5849691270879613	3.500000033675023
C	5.4051997079954	-0.7496515229120384	3.4999972236750234
S	3.8398905679953996	-1.5379177529120385	3.4999980136750235
S	-3.8403333420046	1.5376533570879614	3.4999981236750233
C	-5.4054230520046	0.7489117770879614	3.5000037736750236
C	-5.4254522020046	-0.5857156429120385	3.4999994736750235
S	-3.8847747620046	-1.4210725329120384	3.5000014036750233
H	-6.2774354220046	1.3903542770879616	3.4999994036750235
H	-6.3163487820046	-1.2006491829120385	3.5000003436750236
H	6.3167486179954	1.1996030670879614	3.5000019636750235
H	6.2770068479954	-1.3913794329120386	3.5000000936750233
