52
85a PD short
C	-1.516240086584231	0.02300861986892011	-2.9806324971252194e-05
C	-0.711588746584231	1.2300594398689202	4.1903675028747805e-05
C	0.7483455334157689	1.2081144698689201	-4.164632497125219e-05
C	1.516244983415769	-0.022656420131079713	2.4703675028747807e-05
C	0.7115765634157689	-1.2296714301310798	-4.249632497125219e-05
C	-0.7483205765842311	-1.2077254201310796	4.5373675028747804e-05
N	-1.2127282665842312	2.44938166986892	-1.4886324971252193e-05
S	0.053124193415768906	3.5300680898689203	1.4536750287478062e-06
N	1.2859303934157689	2.41181434986892	1.6953675028747805e-05
N	-1.2859094065842311	-2.41142758013108	-1.7246324971252193e-05
N	1.2127193734157689	-2.44899561013108	1.9463675028747807e-05
S	-0.053118106584230995	-3.5296825501310796	1.2736750287478062e-06
C	2.8978361634157688	-0.04374860013107984	-4.156324971252194e-06
C	-2.897835106584231	0.043795379868920126	1.613675028747806e-06
S	3.885208633415769	1.42079571986892	-6.96324971252194e-07
C	5.425650993415769	0.5849689898689201	3.367502874780607e-08
C	5.405199853415769	-0.7496516601310796	-2.776324971252194e-06
S	3.8398907134157687	-1.5379178901310797	-1.986324971252194e-06
S	-3.840333196584231	1.5376532198689201	-1.876324971252194e-06
C	-5.4054229065842305	0.7489116398689202	3.773675028747806e-06
C	-5.425452056584231	-0.5857157801310797	-5.263249712521939e-07
S	-3.884774616584231	-1.4210726701310796	1.4036750287478063e-06
H	-6.277435276584231	1.3903541398689203	-5.96324971252194e-07
H	-6.316348636584231	-1.2006493201310797	3.436750287478061e-07
H	6.316748763415769	1.1996029298689201	1.963675028747806e-06
H	6.277006993415769	-1.3913795701310798	9.367502874780607e-08
C	-1.5567070619637993	-2.6467256666457493	3.499970296661794
C	-0.7520557219637993	-1.4396748466457494	3.500042006661794
C	0.7078785580362006	-1.4616198166457495	3.499958456661794
C	1.4757780080362006	-2.692390706645749	3.500024806661794
C	0.6711095880362006	-3.899405716645749	3.499957606661794
C	-0.7887875519637995	-3.877459706645749	3.500045476661794
N	-1.2531952419637995	-0.2203526166457494	3.499985216661794
S	0.012657218036200539	0.8603338033542507	3.500001556661794
N	1.2454634180362005	-0.25791993664574936	3.500017056661794
N	-1.3263763819637995	-5.081161866645749	3.499982856661794
N	1.1722523980362005	-5.11872989664575	3.500019566661794
S	-0.09358508196379937	-6.199416836645749	3.500001376661794
C	2.8573691880362	-2.713482886645749	3.499995946661794
C	-2.9383020819637995	-2.6259389066457492	3.500001716661794
S	3.8447416580362006	-1.2489385666457495	3.499999406661794
C	5.385184018036201	-2.0847652966457493	3.500000136661794
C	5.3647328780362	-3.419385946645749	3.499997326661794
S	3.7994237380362	-4.207652176645749	3.4999981166617937
S	-3.8808001719637994	-1.1320810666457495	3.499998226661794
C	-5.445889881963799	-1.9208226466457494	3.500003876661794
C	-5.465919031963799	-3.255450066645749	3.4999995766617937
S	-3.9252415919637995	-4.090806956645749	3.500001506661794
H	-6.317902251963799	-1.2793801466457493	3.4999995066617937
H	-6.3568156119638	-3.870383606645749	3.5000004466617938
H	6.276281788036201	-1.4701313566457495	3.500002066661794
H	6.236540018036201	-4.061113856645749	3.500000196661794
