52
85a TS45.0
C	-1.516240086584231	0.02300861986892011	-2.9806324971252194e-05
C	-0.711588746584231	1.2300594398689202	4.1903675028747805e-05
C	0.7483455334157689	1.2081144698689201	-4.164632497125219e-05
C	1.516244983415769	-0.022656420131079713	2.4703675028747807e-05
C	0.7115765634157689	-1.2296714301310798	-4.249632497125219e-05
C	-0.7483205765842311	-1.2077254201310796	4.5373675028747804e-05
N	-1.2127282665842312	2.44938166986892	-1.4886324971252193e-05
S	0.053124193415768906	3.5300680898689203	1.4536750287478062e-06
N	1.2859303934157689	2.41181434986892	1.6953675028747805e-05
N	-1.2859094065842311	-2.41142758013108	-1.7246324971252193e-05
N	1.2127193734157689	-2.44899561013108	1.9463675028747807e-05
S	-0.053118106584230995	-3.5296825501310796	1.2736750287478062e-06
C	2.8978361634157688	-0.04374860013107984	-4.156324971252194e-06
C	-2.897835106584231	0.043795379868920126	1.613675028747806e-06
S	3.885208633415769	1.42079571986892	-6.96324971252194e-07
C	5.425650993415769	0.5849689898689201	3.367502874780607e-08
C	5.405199853415769	-0.7496516601310796	-2.776324971252194e-06
S	3.8398907134157687	-1.5379178901310797	-1.986324971252194e-06
S	-3.840333196584231	1.5376532198689201	-1.876324971252194e-06
C	-5.4054229065842305	0.7489116398689202	3.773675028747806e-06
C	-5.425452056584231	-0.5857157801310797	-5.263249712521939e-07
S	-3.884774616584231	-1.4210726701310796	1.4036750287478063e-06
H	-6.277435276584231	1.3903541398689203	-5.96324971252194e-07
H	-6.316348636584231	-1.2006493201310797	3.436750287478061e-07
H	6.316748763415769	1.1996029298689201	1.963675028747806e-06
H	6.277006993415769	-1.3913795701310798	9.367502874780607e-08
C	-1.0721227493046486	0.016277085068576388	5.928776225635507
C	-0.4977873789331804	1.2268189693305203	6.484800231373212
C	0.5346019405487178	1.2113546048147934	7.51718719228363
C	1.0721308013958553	-0.015924393015554435	8.07334862444603
C	0.49778032274949613	-1.2264304971646973	7.517315347993263
C	-0.534585782022234	-1.2109648815737024	6.484957689568106
N	-0.8467281115565718	2.443834213201799	6.1173743427857445
S	0.05323500417545353	3.5300666803013323	7.000794405308795
N	0.9200692201359074	2.4173602400311993	7.884415010458015
N	-0.9200530369674872	-2.4169728573394504	6.117724246367361
N	0.846719717998259	-2.443447620895941	7.884747239334732
S	-0.053231498577096435	-3.529680561296779	7.001336465479855
C	2.049083030752763	-0.030883170348723458	9.050374543282942
C	-2.0490808598076096	0.030930473340661832	4.951752675150695
S	2.753825188362471	1.4379451799164	9.732779282799882
C	3.839475716464875	0.6090120557572268	10.830869349036746
C	3.8190914495171593	-0.7256096078853476	10.830710797629438
S	2.7086461388769223	-1.5207705350434368	9.732445499477496
S	-2.70895807701663	1.5205044261583058	4.269370529215596
C	-3.8192537584469624	0.7248692070204582	3.1712689044716353
C	-3.839338581594201	-0.6097573691014005	3.1714077297463383
S	-2.7535205740513113	-1.438219628590522	4.269659816881582
H	-4.4330681417351645	1.3623980150314863	2.5478565400747426
H	-4.472087541014495	-1.2286038376552013	2.54811183084726
H	4.472363642782472	1.2275598674709876	11.454312685073113
H	4.432760493214114	-1.3634247336981213	11.453980057202447
