52
85a TL45.0
C	-1.516240086584231	0.02300861986892011	-2.9806324971252194e-05
C	-0.711588746584231	1.2300594398689202	4.1903675028747805e-05
C	0.7483455334157689	1.2081144698689201	-4.164632497125219e-05
C	1.516244983415769	-0.022656420131079713	2.4703675028747807e-05
C	0.7115765634157689	-1.2296714301310798	-4.249632497125219e-05
C	-0.7483205765842311	-1.2077254201310796	4.5373675028747804e-05
N	-1.2127282665842312	2.44938166986892	-1.4886324971252193e-05
S	0.053124193415768906	3.5300680898689203	1.4536750287478062e-06
N	1.2859303934157689	2.41181434986892	1.6953675028747805e-05
N	-1.2859094065842311	-2.41142758013108	-1.7246324971252193e-05
N	1.2127193734157689	-2.44899561013108	1.9463675028747807e-05
S	-0.053118106584230995	-3.5296825501310796	1.2736750287478062e-06
C	2.8978361634157688	-0.04374860013107984	-4.156324971252194e-06
C	-2.897835106584231	0.043795379868920126	1.613675028747806e-06
S	3.885208633415769	1.42079571986892	-6.96324971252194e-07
C	5.425650993415769	0.5849689898689201	3.367502874780607e-08
C	5.405199853415769	-0.7496516601310796	-2.776324971252194e-06
S	3.8398907134157687	-1.5379178901310797	-1.986324971252194e-06
S	-3.840333196584231	1.5376532198689201	-1.876324971252194e-06
C	-5.4054229065842305	0.7489116398689202	3.773675028747806e-06
C	-5.425452056584231	-0.5857157801310797	-5.263249712521939e-07
S	-3.884774616584231	-1.4210726701310796	1.4036750287478063e-06
H	-6.277435276584231	1.3903541398689203	-5.96324971252194e-07
H	-6.316348636584231	-1.2006493201310797	3.436750287478061e-07
H	6.316748763415769	1.1996029298689201	1.963675028747806e-06
H	6.277006993415769	-1.3913795701310798	9.367502874780607e-08
C	-1.5162396529162925	0.02302181085437292	-5.54601102690032
C	-0.7170008024755421	0.872994680272364	-4.683921212920196
C	0.7429335561455408	0.85105489760275	-4.683850064630279
C	1.516243501696119	-0.022769593234291133	-5.545760176364655
C	0.7169873651262573	-0.8727202516246819	-6.407821665751344
C	-0.742909906906283	-0.8507829526909592	-6.407888626009947
N	-1.2235180517617978	1.7375321984593544	-3.827240013099824
S	0.0374523613684579	2.4961355418354194	-3.049589594366425
N	1.275138908128794	1.699852717035115	-3.8270008297619516
N	-1.2751191754208948	-1.6995795246164993	-7.264742358011677
N	1.2235078574404565	-1.7372628187259755	-7.264500553271105
S	-0.037447554563453486	-2.4958652883242203	-8.042152487267082
C	2.897835659793565	-0.043797245091067485	-5.545887002529535
C	-2.8978343225607888	0.04383168466850607	-5.546098371442761
S	3.8786411743074223	0.9875055917852369	-4.499832768218413
C	5.422689768736814	0.38959281687226693	-5.07427444384953
C	5.408163848930574	-0.5541235259513196	-6.018106521331046
S	3.8464587899934912	-1.1046178648228673	-6.592205506600378
S	-3.8468995663798644	1.1044349569726108	-4.500005757212186
C	-5.408383152286697	0.5536000528243872	-5.074435038948643
C	-5.422487064466288	-0.39012189710870476	-6.018268434183088
S	-3.87820550413293	-0.9877043051987363	-6.59237455307997
H	-6.283183899177039	1.0110850794079993	-4.6302671000446125
H	-6.310594287441441	-0.8210333013001339	-6.462589148431835
H	6.310999467966407	0.8202894790590772	-4.6301614184400135
H	6.282760662517322	-1.0118084156281932	-6.462479512478753
