52
85a PD long
C	-1.516240086584231	0.02300861986892011	-2.9806324971252194e-05
C	-0.711588746584231	1.2300594398689202	4.1903675028747805e-05
C	0.7483455334157689	1.2081144698689201	-4.164632497125219e-05
C	1.516244983415769	-0.022656420131079713	2.4703675028747807e-05
C	0.7115765634157689	-1.2296714301310798	-4.249632497125219e-05
C	-0.7483205765842311	-1.2077254201310796	4.5373675028747804e-05
N	-1.2127282665842312	2.44938166986892	-1.4886324971252193e-05
S	0.053124193415768906	3.5300680898689203	1.4536750287478062e-06
N	1.2859303934157689	2.41181434986892	1.6953675028747805e-05
N	-1.2859094065842311	-2.41142758013108	-1.7246324971252193e-05
N	1.2127193734157689	-2.44899561013108	1.9463675028747807e-05
S	-0.053118106584230995	-3.5296825501310796	1.2736750287478062e-06
C	2.8978361634157688	-0.04374860013107984	-4.156324971252194e-06
C	-2.897835106584231	0.043795379868920126	1.613675028747806e-06
S	3.885208633415769	1.42079571986892	-6.96324971252194e-07
C	5.425650993415769	0.5849689898689201	3.367502874780607e-08
C	5.405199853415769	-0.7496516601310796	-2.776324971252194e-06
S	3.8398907134157687	-1.5379178901310797	-1.986324971252194e-06
S	-3.840333196584231	1.5376532198689201	-1.876324971252194e-06
C	-5.4054229065842305	0.7489116398689202	3.773675028747806e-06
C	-5.425452056584231	-0.5857157801310797	-5.263249712521939e-07
S	-3.884774616584231	-1.4210726701310796	1.4036750287478063e-06
H	-6.277435276584231	1.3903541398689203	-5.96324971252194e-07
H	-6.316348636584231	-1.2006493201310797	3.436750287478061e-07
H	6.316748763415769	1.1996029298689201	1.963675028747806e-06
H	6.277006993415769	-1.3913795701310798	9.367502874780607e-08
C	2.182256020686834	-0.033051657622903685	3.4999703495405226
C	2.9869073606868337	1.1739991623770965	3.5000420595405224
C	4.446841640686834	1.1520541923770964	3.499958509540522
C	5.214741090686834	-0.07871669762290351	3.500024859540522
C	4.410072670686834	-1.2857317076229036	3.4999576595405224
C	2.950175530686834	-1.2637856976229034	3.500045529540522
N	2.485767840686834	2.3933213923770964	3.4999852695405225
S	3.7516203006868336	3.4740078123770965	3.500001609540522
N	4.984426500686833	2.3557540723770964	3.500017109540522
N	2.412586700686834	-2.4674878576229036	3.499982909540522
N	4.911215480686834	-2.5050558876229037	3.5000196195405224
S	3.6453780006868337	-3.5857428276229033	3.5000014295405224
C	6.596332270686833	-0.09980887762290364	3.4999959995405225
C	0.8006610006868341	-0.012264897622903668	3.500001769540522
S	7.583704740686834	1.3647354423770963	3.4999994595405224
C	9.124147100686834	0.5289087123770962	3.5000001895405224
C	9.103695960686833	-0.8057119376229035	3.499997379540522
S	7.538386820686833	-1.5939781676229035	3.4999981695405222
S	-0.14183708931316588	1.4815929423770964	3.4999982795405225
C	-1.7069267993131656	0.6928513623770963	3.5000039295405223
C	-1.7269559493131657	-0.6417760576229036	3.4999996295405222
S	-0.18627850931316595	-1.4771329476229034	3.5000015595405225
H	-2.578939169313166	1.3342938623770966	3.499999559540522
H	-2.6178525293131663	-1.2567095976229035	3.5000004995405223
H	10.015244870686834	1.1435426523770964	3.500002119540522
H	9.975503100686835	-1.4474398476229036	3.5000002495405225
