72
52a PD long+short
C	-1.7932585499408429	-0.3660489088906707	-5.1064734857163e-06
C	-2.086474719940843	1.0400006611093293	-1.5264734857163e-06
S	-0.6143961999408427	2.0324388211093294	-1.4647348571629998e-07
C	0.37308275005915714	0.5754048511093293	2.2035265142836997e-06
C	-0.3730538499408427	-0.5724696088906707	2.5935265142836998e-06
C	1.7934326000591572	0.3683208111093293	5.3235265142836995e-06
C	2.085582310059157	-1.0380474788906706	-8.136473485716299e-06
S	0.613380790059157	-2.0298575188906707	3.8435265142837e-06
C	2.836820150059157	1.2769874911093293	2.1335265142837e-06
C	4.1753034500591575	0.8305413911093293	8.163526514283701e-06
C	4.452023280059157	-0.5807034988906707	-1.15464734857163e-05
C	3.377853790059157	-1.5023727488906706	9.563526514283701e-06
C	5.270896500059157	1.7390596211093294	-8.456473485716299e-06
C	6.5649576200591575	1.2862121711093293	-2.364734857163e-07
C	6.836187770059157	-0.10523540889067068	-4.3664734857163e-06
C	5.806633840059157	-1.0116293188906706	1.6535265142837e-06
C	-3.3793862699408432	1.5028695111093293	-2.464734857163e-07
C	-4.452589959940843	0.5798705611093293	3.4835265142837e-06
C	-4.174319819940843	-0.8310852488906706	-6.5264734857163e-06
C	-2.835445839940843	-1.2759524788906706	9.935265142837e-07
C	-5.807860309940843	1.0088614411093293	-3.3864734857163e-06
C	-6.8361623299408425	0.10098933110932931	4.3235265142837e-06
C	-6.563211859940843	-1.2901119888906707	-4.8764734857163e-06
C	-5.268568689940842	-1.7411712088906706	5.0835265142837e-06
H	-3.593457829940843	2.5671548911093294	1.1035265142837e-06
H	-6.017866099940843	2.074507681109329	-5.064734857163e-07
H	-7.865414519940844	0.4450600611093293	-3.4764734857163e-06
H	-7.386029559940843	-1.9976332088906705	-3.3164734857163e-06
H	-5.059208689940843	-2.8069249788906707	7.035265142837001e-07
H	-2.6305043699408426	-2.3424470488906706	2.635265142837e-07
H	3.590494550059157	-2.5669375288906706	-6.1064734857163e-06
H	6.014959220059158	-2.077603948890671	7.035265142837001e-07
H	7.864947890059157	-0.45080742889067066	1.3935265142837e-06
H	7.388688150059157	1.9926711411093294	1.2352651428369998e-07
H	5.063277210059157	2.8051470111093293	-4.364734857163e-07
H	2.6333133000591573	2.3437527711093296	-2.0764734857163e-06
C	2.7383832573849367	-2.111817900781619	3.499995960237282
C	2.4451670873849367	-0.7057683307816186	3.499999540237282
S	3.917245607384937	0.2866698292183815	3.500000920237282
C	4.904724557384937	-1.1703641407816185	3.500003270237282
C	4.158587957384937	-2.3182386007816187	3.500003660237282
C	6.325074407384937	-1.3774481807816186	3.500006390237282
C	6.617224117384937	-2.783816470781619	3.499992930237282
S	5.145022597384937	-3.7756265107816187	3.500004910237282
C	7.368461957384937	-0.46878150078161857	3.500003200237282
C	8.706945257384936	-0.9152276007816186	3.500009230237282
C	8.983665087384937	-2.3264724907816188	3.499989520237282
C	7.909495597384937	-3.2481417407816187	3.500010630237282
C	9.802538307384937	-0.006709370781618438	3.499992610237282
C	11.096599427384936	-0.4595568207816186	3.500000830237282
C	11.367829577384937	-1.8510044007816184	3.499996700237282
C	10.338275647384936	-2.7573983107816185	3.500002720237282
C	1.1522555373849364	-0.24289948078161855	3.500000820237282
C	0.07905184738493667	-1.1658984307816185	3.500004550237282
C	0.3573219873849367	-2.5768542407816186	3.499994540237282
C	1.6961959673849365	-3.0217214707816185	3.500002060237282
C	-1.276218502615063	-0.7369075507816186	3.499997680237282
C	-2.304520522615063	-1.6447796607816185	3.500005390237282
C	-2.0315700526150633	-3.0358809807816187	3.499996190237282
C	-0.7369268826150628	-3.4869402007816186	3.500006150237282
H	0.9381839773849365	0.8213858992183815	3.500002170237282
H	-1.4862242926150633	0.3287386892183812	3.500000560237282
H	-3.333772712615064	-1.3007089307816184	3.4999975902372817
H	-2.854387752615063	-3.7434022007816186	3.499997750237282
H	-0.5275668826150635	-4.552693970781618	3.500001770237282
H	1.901137437384937	-4.088216040781619	3.500001330237282
H	8.122136357384937	-4.312706520781619	3.4999949602372817
H	10.546601027384936	-3.823372940781619	3.500001770237282
H	12.396589697384936	-2.1965764207816187	3.500002460237282
H	11.920329957384936	0.24690214921838155	3.500001190237282
H	9.594919017384937	1.0593780192183815	3.500000630237282
H	7.164955107384937	0.5979837792183816	3.499998990237282
