72
52a cofacial 5.0A
C	-1.7932585499408429	-0.3660489088906707	-5.1064734857163e-06
C	-2.086474719940843	1.0400006611093293	-1.5264734857163e-06
S	-0.6143961999408427	2.0324388211093294	-1.4647348571629998e-07
C	0.37308275005915714	0.5754048511093293	2.2035265142836997e-06
C	-0.3730538499408427	-0.5724696088906707	2.5935265142836998e-06
C	1.7934326000591572	0.3683208111093293	5.3235265142836995e-06
C	2.085582310059157	-1.0380474788906706	-8.136473485716299e-06
S	0.613380790059157	-2.0298575188906707	3.8435265142837e-06
C	2.836820150059157	1.2769874911093293	2.1335265142837e-06
C	4.1753034500591575	0.8305413911093293	8.163526514283701e-06
C	4.452023280059157	-0.5807034988906707	-1.15464734857163e-05
C	3.377853790059157	-1.5023727488906706	9.563526514283701e-06
C	5.270896500059157	1.7390596211093294	-8.456473485716299e-06
C	6.5649576200591575	1.2862121711093293	-2.364734857163e-07
C	6.836187770059157	-0.10523540889067068	-4.3664734857163e-06
C	5.806633840059157	-1.0116293188906706	1.6535265142837e-06
C	-3.3793862699408432	1.5028695111093293	-2.464734857163e-07
C	-4.452589959940843	0.5798705611093293	3.4835265142837e-06
C	-4.174319819940843	-0.8310852488906706	-6.5264734857163e-06
C	-2.835445839940843	-1.2759524788906706	9.935265142837e-07
C	-5.807860309940843	1.0088614411093293	-3.3864734857163e-06
C	-6.8361623299408425	0.10098933110932931	4.3235265142837e-06
C	-6.563211859940843	-1.2901119888906707	-4.8764734857163e-06
C	-5.268568689940842	-1.7411712088906706	5.0835265142837e-06
H	-3.593457829940843	2.5671548911093294	1.1035265142837e-06
H	-6.017866099940843	2.074507681109329	-5.064734857163e-07
H	-7.865414519940844	0.4450600611093293	-3.4764734857163e-06
H	-7.386029559940843	-1.9976332088906705	-3.3164734857163e-06
H	-5.059208689940843	-2.8069249788906707	7.035265142837001e-07
H	-2.6305043699408426	-2.3424470488906706	2.635265142837e-07
H	3.590494550059157	-2.5669375288906706	-6.1064734857163e-06
H	6.014959220059158	-2.077603948890671	7.035265142837001e-07
H	7.864947890059157	-0.45080742889067066	1.3935265142837e-06
H	7.388688150059157	1.9926711411093294	1.2352651428369998e-07
H	5.063277210059157	2.8051470111093293	-4.364734857163e-07
H	2.6333133000591573	2.3437527711093296	-2.0764734857163e-06
C	-1.79325883816506	-0.36604660192849364	4.999994893525973
C	-2.08647500816506	1.0400029680715064	4.999998473525974
S	-0.6143964881650599	2.0324411280715067	4.999999853525973
C	0.37308246183494	0.5754071580715063	5.000002203525973
C	-0.37305413816505983	-0.5724673019284936	5.0000025935259735
C	1.79343231183494	0.36832311807150636	5.000005323525974
C	2.08558202183494	-1.0380451719284935	4.999991863525973
S	0.6133805018349399	-2.0298552119284934	5.000003843525973
C	2.83681986183494	1.2769897980715064	5.000002133525974
C	4.1753031618349405	0.8305436980715064	5.000008163525973
C	4.45202299183494	-0.5807011919284937	4.999988453525973
C	3.3778535018349403	-1.5023704419284936	5.000009563525974
C	5.27089621183494	1.7390619280715065	4.999991543525973
C	6.564957331834941	1.2862144780715064	4.999999763525973
C	6.83618748183494	-0.10523310192849361	4.999995633525973
C	5.80663355183494	-1.0116270119284936	5.000001653525973
C	-3.37938655816506	1.5028718180715064	4.999999753525973
C	-4.45259024816506	0.5798728680715064	5.0000034835259735
C	-4.17432010816506	-0.8310829419284935	4.999993473525973
C	-2.83544612816506	-1.2759501719284936	5.0000009935259735
C	-5.8078605981650595	1.0088637480715064	4.9999966135259735
C	-6.836162618165059	0.10099163807150638	5.000004323525974
C	-6.56321214816506	-1.2901096819284936	4.999995123525974
C	-5.268568978165059	-1.7411689019284935	5.0000050835259735
H	-3.59345811816506	2.5671571980715067	5.000001103525974
H	-6.01786638816506	2.0745099880715063	4.999999493525974
H	-7.865414808165061	0.44506236807150634	4.999996523525973
H	-7.38602984816506	-1.9976309019284935	4.999996683525973
H	-5.05920897816506	-2.8069226719284934	5.0000007035259735
H	-2.6305046581650595	-2.3424447419284933	5.0000002635259735
H	3.59049426183494	-2.5669352219284933	4.999993893525973
H	6.014958931834941	-2.0776016419284935	5.0000007035259735
H	7.86494760183494	-0.4508051219284936	5.000001393525974
H	7.38868786183494	1.9926734480715065	5.0000001235259735
H	5.06327692183494	2.8051493180715066	4.999999563525973
H	2.6333130118349404	2.343755078071507	4.9999979235259735
