72
52a TS45.0
C	-1.7932585499408429	-0.3660489088906707	-5.1064734857163e-06
C	-2.086474719940843	1.0400006611093293	-1.5264734857163e-06
S	-0.6143961999408427	2.0324388211093294	-1.4647348571629998e-07
C	0.37308275005915714	0.5754048511093293	2.2035265142836997e-06
C	-0.3730538499408427	-0.5724696088906707	2.5935265142836998e-06
C	1.7934326000591572	0.3683208111093293	5.3235265142836995e-06
C	2.085582310059157	-1.0380474788906706	-8.136473485716299e-06
S	0.613380790059157	-2.0298575188906707	3.8435265142837e-06
C	2.836820150059157	1.2769874911093293	2.1335265142837e-06
C	4.1753034500591575	0.8305413911093293	8.163526514283701e-06
C	4.452023280059157	-0.5807034988906707	-1.15464734857163e-05
C	3.377853790059157	-1.5023727488906706	9.563526514283701e-06
C	5.270896500059157	1.7390596211093294	-8.456473485716299e-06
C	6.5649576200591575	1.2862121711093293	-2.364734857163e-07
C	6.836187770059157	-0.10523540889067068	-4.3664734857163e-06
C	5.806633840059157	-1.0116293188906706	1.6535265142837e-06
C	-3.3793862699408432	1.5028695111093293	-2.464734857163e-07
C	-4.452589959940843	0.5798705611093293	3.4835265142837e-06
C	-4.174319819940843	-0.8310852488906706	-6.5264734857163e-06
C	-2.835445839940843	-1.2759524788906706	9.935265142837e-07
C	-5.807860309940843	1.0088614411093293	-3.3864734857163e-06
C	-6.8361623299408425	0.10098933110932931	4.3235265142837e-06
C	-6.563211859940843	-1.2901119888906707	-4.8764734857163e-06
C	-5.268568689940842	-1.7411712088906706	5.0835265142837e-06
H	-3.593457829940843	2.5671548911093294	1.1035265142837e-06
H	-6.017866099940843	2.074507681109329	-5.064734857163e-07
H	-7.865414519940844	0.4450600611093293	-3.4764734857163e-06
H	-7.386029559940843	-1.9976332088906705	-3.3164734857163e-06
H	-5.059208689940843	-2.8069249788906707	7.035265142837001e-07
H	-2.6305043699408426	-2.3424470488906706	2.635265142837e-07
H	3.590494550059157	-2.5669375288906706	-6.1064734857163e-06
H	6.014959220059158	-2.077603948890671	7.035265142837001e-07
H	7.864947890059157	-0.45080742889067066	1.3935265142837e-06
H	7.388688150059157	1.9926711411093294	1.2352651428369998e-07
H	5.063277210059157	2.8051470111093293	-4.364734857163e-07
H	2.6333133000591573	2.3437527711093296	-2.0764734857163e-06
C	-1.2651208098251598	-0.3490647146445575	6.820367169216482
C	-1.4857751458253128	1.0593178303482254	6.645091995208712
S	-0.4537509029525252	2.0376075659043793	7.708023707925856
C	0.25850681735756376	0.5717248084337866	8.372808897022058
C	-0.2585183112769876	-0.5687833640194554	7.819399711420847
C	1.265221473871734	0.35134175831830017	9.371925710817536
C	1.4851313672849493	-1.0573491533083121	9.546432944568323
S	0.4530047617165771	-2.035010105355644	8.483438022662085
C	1.9947770984525908	1.2499182573702075	10.129976883787709
C	2.945828436870127	0.7910156216149382	11.065798120569362
C	3.1548733859901423	-0.6224051202747645	11.22928518396643
C	2.4036519940775265	-1.5336910903168486	10.44919634208662
C	3.7123256036978978	1.6889529108703683	11.860732220691169
C	4.632010956138392	1.2240687019093386	12.765014543917609
C	4.836975192670473	-0.16950942951709982	12.925082702921056
C	4.11718221690337	-1.065944046580743	12.176861970606005
C	-2.4047482761654693	1.5342093778902208	5.741856559560095
C	-3.155261659363721	0.6215854194763832	4.962407783748623
C	-2.945129581622879	-0.791561134418787	5.127003943506672
C	-1.9938177794499512	-1.2488890868287523	6.063138221106027
C	-4.118023501786656	1.0631960540242216	4.014325203490899
C	-4.836918152464659	0.16527186865820162	3.266956853162429
C	-4.630736620034351	-1.227976175765068	3.4282451170226
C	-3.710657573251534	-1.6910782106529207	4.3329806643665805
H	-2.56619812323747	2.600186627205722	5.6147485200559535
H	-4.276611069660814	2.1304954692508558	3.8901226180081503
H	-5.568252152235444	0.5189211284591841	2.547354518713149
H	-5.206150294475335	-1.9275429743590258	2.830649399369488
H	-3.552524771459472	-2.758479014164269	4.456723339095705
H	-1.8388062969291998	-2.3169889830156944	6.183743884397355
H	2.5641024290868635	-2.5999338698308447	10.575276701044537
H	4.274582772632196	-2.1335559883063446	12.299870843041418
H	5.567976663304092	-0.5246548498311243	13.64430171400456
H	5.208079011570627	1.9225649409668484	13.3632326160959
H	3.555418485075732	2.7566707754705675	11.738229932954507
H	1.8407814238949378	2.3182753981081055	10.010387784451678
