72
52a cofacial 3.5A
C	-1.7932585499408429	-0.3660489088906707	-5.1064734857163e-06
C	-2.086474719940843	1.0400006611093293	-1.5264734857163e-06
S	-0.6143961999408427	2.0324388211093294	-1.4647348571629998e-07
C	0.37308275005915714	0.5754048511093293	2.2035265142836997e-06
C	-0.3730538499408427	-0.5724696088906707	2.5935265142836998e-06
C	1.7934326000591572	0.3683208111093293	5.3235265142836995e-06
C	2.085582310059157	-1.0380474788906706	-8.136473485716299e-06
S	0.613380790059157	-2.0298575188906707	3.8435265142837e-06
C	2.836820150059157	1.2769874911093293	2.1335265142837e-06
C	4.1753034500591575	0.8305413911093293	8.163526514283701e-06
C	4.452023280059157	-0.5807034988906707	-1.15464734857163e-05
C	3.377853790059157	-1.5023727488906706	9.563526514283701e-06
C	5.270896500059157	1.7390596211093294	-8.456473485716299e-06
C	6.5649576200591575	1.2862121711093293	-2.364734857163e-07
C	6.836187770059157	-0.10523540889067068	-4.3664734857163e-06
C	5.806633840059157	-1.0116293188906706	1.6535265142837e-06
C	-3.3793862699408432	1.5028695111093293	-2.464734857163e-07
C	-4.452589959940843	0.5798705611093293	3.4835265142837e-06
C	-4.174319819940843	-0.8310852488906706	-6.5264734857163e-06
C	-2.835445839940843	-1.2759524788906706	9.935265142837e-07
C	-5.807860309940843	1.0088614411093293	-3.3864734857163e-06
C	-6.8361623299408425	0.10098933110932931	4.3235265142837e-06
C	-6.563211859940843	-1.2901119888906707	-4.8764734857163e-06
C	-5.268568689940842	-1.7411712088906706	5.0835265142837e-06
H	-3.593457829940843	2.5671548911093294	1.1035265142837e-06
H	-6.017866099940843	2.074507681109329	-5.064734857163e-07
H	-7.865414519940844	0.4450600611093293	-3.4764734857163e-06
H	-7.386029559940843	-1.9976332088906705	-3.3164734857163e-06
H	-5.059208689940843	-2.8069249788906707	7.035265142837001e-07
H	-2.6305043699408426	-2.3424470488906706	2.635265142837e-07
H	3.590494550059157	-2.5669375288906706	-6.1064734857163e-06
H	6.014959220059158	-2.077603948890671	7.035265142837001e-07
H	7.864947890059157	-0.45080742889067066	1.3935265142837e-06
H	7.388688150059157	1.9926711411093294	1.2352651428369998e-07
H	5.063277210059157	2.8051470111093293	-4.364734857163e-07
H	2.6333133000591573	2.3437527711093296	-2.0764734857163e-06
C	-1.793258751697795	-0.36604729401714675	3.499994893526136
C	-2.086474921697795	1.0400022759828533	3.499998473526136
S	-0.6143964016977947	2.032440435982853	3.499999853526136
C	0.3730825483022051	0.5754064659828532	3.500002203526136
C	-0.3730540516977947	-0.5724679940171468	3.500002593526136
C	1.7934323983022051	0.36832242598285325	3.500005323526136
C	2.085582108302205	-1.0380458640171466	3.499991863526136
S	0.613380588302205	-2.029855904017147	3.500003843526136
C	2.836819948302205	1.2769891059828533	3.5000021335261358
C	4.175303248302206	0.8305430059828532	3.500008163526136
C	4.452023078302205	-0.5807018840171468	3.499988453526136
C	3.377853588302205	-1.5023711340171466	3.500009563526136
C	5.270896298302206	1.7390612359828534	3.4999915435261357
C	6.564957418302206	1.2862137859828533	3.499999763526136
C	6.836187568302205	-0.10523379401714673	3.4999956335261357
C	5.8066336383022055	-1.0116277040171466	3.500001653526136
C	-3.3793864716977953	1.5028711259828533	3.499999753526136
C	-4.4525901616977945	0.5798721759828532	3.500003483526136
C	-4.1743200216977945	-0.8310836340171467	3.499993473526136
C	-2.835446041697795	-1.2759508640171466	3.500000993526136
C	-5.807860511697794	1.0088630559828533	3.499996613526136
C	-6.836162531697794	0.10099094598285326	3.5000043235261358
C	-6.5632120616977945	-1.2901103740171467	3.4999951235261357
C	-5.268568891697794	-1.7411695940171465	3.500005083526136
H	-3.593458031697795	2.567156505982853	3.500001103526136
H	-6.0178663016977945	2.074509295982853	3.499999493526136
H	-7.865414721697795	0.44506167598285323	3.499996523526136
H	-7.386029761697794	-1.9976315940171465	3.499996683526136
H	-5.059208891697795	-2.806923364017147	3.500000703526136
H	-2.6305045716977946	-2.3424454340171468	3.500000263526136
H	3.590494348302205	-2.566935914017147	3.499993893526136
H	6.014959018302206	-2.077602334017147	3.500000703526136
H	7.864947688302205	-0.4508058140171467	3.500001393526136
H	7.388687948302206	1.9926727559828534	3.500000123526136
H	5.063277008302205	2.805148625982853	3.499999563526136
H	2.6333130983022053	2.3437543859828533	3.499997923526136
