72
52a cofacial 4.5A
C	-1.7932585499408429	-0.3660489088906707	-5.1064734857163e-06
C	-2.086474719940843	1.0400006611093293	-1.5264734857163e-06
S	-0.6143961999408427	2.0324388211093294	-1.4647348571629998e-07
C	0.37308275005915714	0.5754048511093293	2.2035265142836997e-06
C	-0.3730538499408427	-0.5724696088906707	2.5935265142836998e-06
C	1.7934326000591572	0.3683208111093293	5.3235265142836995e-06
C	2.085582310059157	-1.0380474788906706	-8.136473485716299e-06
S	0.613380790059157	-2.0298575188906707	3.8435265142837e-06
C	2.836820150059157	1.2769874911093293	2.1335265142837e-06
C	4.1753034500591575	0.8305413911093293	8.163526514283701e-06
C	4.452023280059157	-0.5807034988906707	-1.15464734857163e-05
C	3.377853790059157	-1.5023727488906706	9.563526514283701e-06
C	5.270896500059157	1.7390596211093294	-8.456473485716299e-06
C	6.5649576200591575	1.2862121711093293	-2.364734857163e-07
C	6.836187770059157	-0.10523540889067068	-4.3664734857163e-06
C	5.806633840059157	-1.0116293188906706	1.6535265142837e-06
C	-3.3793862699408432	1.5028695111093293	-2.464734857163e-07
C	-4.452589959940843	0.5798705611093293	3.4835265142837e-06
C	-4.174319819940843	-0.8310852488906706	-6.5264734857163e-06
C	-2.835445839940843	-1.2759524788906706	9.935265142837e-07
C	-5.807860309940843	1.0088614411093293	-3.3864734857163e-06
C	-6.8361623299408425	0.10098933110932931	4.3235265142837e-06
C	-6.563211859940843	-1.2901119888906707	-4.8764734857163e-06
C	-5.268568689940842	-1.7411712088906706	5.0835265142837e-06
H	-3.593457829940843	2.5671548911093294	1.1035265142837e-06
H	-6.017866099940843	2.074507681109329	-5.064734857163e-07
H	-7.865414519940844	0.4450600611093293	-3.4764734857163e-06
H	-7.386029559940843	-1.9976332088906705	-3.3164734857163e-06
H	-5.059208689940843	-2.8069249788906707	7.035265142837001e-07
H	-2.6305043699408426	-2.3424470488906706	2.635265142837e-07
H	3.590494550059157	-2.5669375288906706	-6.1064734857163e-06
H	6.014959220059158	-2.077603948890671	7.035265142837001e-07
H	7.864947890059157	-0.45080742889067066	1.3935265142837e-06
H	7.388688150059157	1.9926711411093294	1.2352651428369998e-07
H	5.063277210059157	2.8051470111093293	-4.364734857163e-07
H	2.6333133000591573	2.3437527711093296	-2.0764734857163e-06
C	-1.7932588093426383	-0.3660468326247113	4.499994893526027
C	-2.0864749793426385	1.0400027373752887	4.499998473526028
S	-0.6143964593426382	2.0324408973752885	4.4999998535260275
C	0.3730824906573617	0.5754069273752886	4.500002203526027
C	-0.3730541093426381	-0.5724675326247113	4.500002593526028
C	1.7934323406573618	0.3683228873752887	4.500005323526028
C	2.0855820506573615	-1.0380454026247112	4.499991863526027
S	0.6133805306573615	-2.0298554426247115	4.500003843526027
C	2.8368198906573614	1.2769895673752887	4.500002133526028
C	4.175303190657362	0.8305434673752887	4.500008163526028
C	4.452023020657362	-0.5807014226247114	4.4999884535260275
C	3.3778535306573616	-1.5023706726247112	4.500009563526028
C	5.270896240657362	1.7390616973752888	4.499991543526027
C	6.564957360657362	1.2862142473752887	4.499999763526027
C	6.8361875106573615	-0.10523333262471131	4.499995633526027
C	5.806633580657362	-1.0116272426247113	4.500001653526027
C	-3.379386529342639	1.5028715873752887	4.499999753526027
C	-4.452590219342638	0.5798726373752887	4.500003483526028
C	-4.174320079342638	-0.8310831726247112	4.499993473526027
C	-2.8354460993426387	-1.2759504026247113	4.500000993526028
C	-5.807860569342638	1.0088635173752887	4.499996613526028
C	-6.836162589342638	0.10099140737528868	4.500004323526028
C	-6.563212119342638	-1.2901099126247113	4.499995123526028
C	-5.2685689493426375	-1.7411691326247112	4.500005083526028
H	-3.5934580893426387	2.5671569673752885	4.500001103526028
H	-6.017866359342638	2.074509757375288	4.499999493526028
H	-7.865414779342639	0.44506213737528866	4.499996523526027
H	-7.386029819342638	-1.9976311326247111	4.499996683526027
H	-5.059208949342638	-2.8069229026247116	4.500000703526028
H	-2.630504629342638	-2.3424449726247114	4.500000263526028
H	3.5904942906573614	-2.5669354526247115	4.499993893526027
H	6.014958960657363	-2.0776018726247116	4.500000703526028
H	7.864947630657362	-0.4508053526247113	4.500001393526028
H	7.388687890657362	1.9926732173752888	4.500000123526028
H	5.063276950657362	2.8051490873752885	4.4999995635260275
H	2.6333130406573617	2.3437548473752887	4.499997923526028
