72
52a cofacial 4.0A
C	-1.7932585499408429	-0.3660489088906707	-5.1064734857163e-06
C	-2.086474719940843	1.0400006611093293	-1.5264734857163e-06
S	-0.6143961999408427	2.0324388211093294	-1.4647348571629998e-07
C	0.37308275005915714	0.5754048511093293	2.2035265142836997e-06
C	-0.3730538499408427	-0.5724696088906707	2.5935265142836998e-06
C	1.7934326000591572	0.3683208111093293	5.3235265142836995e-06
C	2.085582310059157	-1.0380474788906706	-8.136473485716299e-06
S	0.613380790059157	-2.0298575188906707	3.8435265142837e-06
C	2.836820150059157	1.2769874911093293	2.1335265142837e-06
C	4.1753034500591575	0.8305413911093293	8.163526514283701e-06
C	4.452023280059157	-0.5807034988906707	-1.15464734857163e-05
C	3.377853790059157	-1.5023727488906706	9.563526514283701e-06
C	5.270896500059157	1.7390596211093294	-8.456473485716299e-06
C	6.5649576200591575	1.2862121711093293	-2.364734857163e-07
C	6.836187770059157	-0.10523540889067068	-4.3664734857163e-06
C	5.806633840059157	-1.0116293188906706	1.6535265142837e-06
C	-3.3793862699408432	1.5028695111093293	-2.464734857163e-07
C	-4.452589959940843	0.5798705611093293	3.4835265142837e-06
C	-4.174319819940843	-0.8310852488906706	-6.5264734857163e-06
C	-2.835445839940843	-1.2759524788906706	9.935265142837e-07
C	-5.807860309940843	1.0088614411093293	-3.3864734857163e-06
C	-6.8361623299408425	0.10098933110932931	4.3235265142837e-06
C	-6.563211859940843	-1.2901119888906707	-4.8764734857163e-06
C	-5.268568689940842	-1.7411712088906706	5.0835265142837e-06
H	-3.593457829940843	2.5671548911093294	1.1035265142837e-06
H	-6.017866099940843	2.074507681109329	-5.064734857163e-07
H	-7.865414519940844	0.4450600611093293	-3.4764734857163e-06
H	-7.386029559940843	-1.9976332088906705	-3.3164734857163e-06
H	-5.059208689940843	-2.8069249788906707	7.035265142837001e-07
H	-2.6305043699408426	-2.3424470488906706	2.635265142837e-07
H	3.590494550059157	-2.5669375288906706	-6.1064734857163e-06
H	6.014959220059158	-2.077603948890671	7.035265142837001e-07
H	7.864947890059157	-0.45080742889067066	1.3935265142837e-06
H	7.388688150059157	1.9926711411093294	1.2352651428369998e-07
H	5.063277210059157	2.8051470111093293	-4.364734857163e-07
H	2.6333133000591573	2.3437527711093296	-2.0764734857163e-06
C	-1.7932587805202167	-0.36604706332092907	3.9999948935260816
C	-2.0864749505202167	1.040002506679071	3.9999984735260816
S	-0.6143964305202164	2.032440666679071	3.9999998535260817
C	0.37308251947978344	0.575406696679071	4.000002203526082
C	-0.3730540805202164	-0.572467763320929	4.000002593526082
C	1.7934323694797834	0.36832265667907094	4.000005323526082
C	2.0855820794797832	-1.038045633320929	3.999991863526082
S	0.6133805594797833	-2.029855673320929	4.000003843526081
C	2.836819919479783	1.276989336679071	4.000002133526082
C	4.175303219479784	0.830543236679071	4.000008163526082
C	4.4520230494797834	-0.580701653320929	3.9999884535260817
C	3.3778535594797834	-1.502370903320929	4.000009563526082
C	5.270896269479784	1.7390614666790711	3.9999915435260815
C	6.564957389479784	1.286214016679071	3.9999997635260818
C	6.836187539479783	-0.10523356332092902	3.9999956335260816
C	5.806633609479784	-1.011627473320929	4.000001653526081
C	-3.379386500520217	1.502871356679071	3.999999753526082
C	-4.452590190520216	0.579872406679071	4.000003483526082
C	-4.174320050520216	-0.8310834033209289	3.999993473526082
C	-2.835446070520217	-1.275950633320929	4.000000993526082
C	-5.807860540520216	1.008863286679071	3.999996613526082
C	-6.836162560520216	0.10099117667907097	4.000004323526082
C	-6.563212090520216	-1.290110143320929	3.9999951235260816
C	-5.268568920520216	-1.7411693633209289	4.000005083526082
H	-3.593458060520217	2.567156736679071	4.000001103526082
H	-6.017866330520216	2.0745095266790705	3.9999994935260816
H	-7.865414750520217	0.4450619066790709	3.999996523526082
H	-7.386029790520216	-1.9976313633209288	3.999996683526082
H	-5.059208920520216	-2.8069231333209292	4.000000703526082
H	-2.6305046005202164	-2.342445203320929	4.000000263526082
H	3.590494319479783	-2.566935683320929	3.999993893526082
H	6.014958989479784	-2.0776021033209293	4.000000703526082
H	7.864947659479784	-0.450805583320929	4.000001393526082
H	7.388687919479784	1.9926729866790711	4.000000123526082
H	5.063276979479784	2.8051488566790708	3.9999995635260817
H	2.6333130694797835	2.343754616679071	3.999997923526082
