48
n11 TL90.0
C	-3.7175346392255637	-0.5393331436205194	-5.834475544626734e-06
C	-3.6574008492255636	0.8568609163794806	6.115524455373266e-06
C	-2.4264467692255645	1.5012823363794805	-1.8464475544626733e-05
C	-1.2432632992255641	0.7571264663794806	2.9555524455373265e-05
C	-1.303740469225564	-0.6475246036205194	-2.7024475544626735e-05
C	-2.546532189225564	-1.2871873236205196	1.6705524455373264e-05
C	0.06361851077443587	1.4778169163794805	-3.2944475544626736e-05
C	1.303739350774436	0.6475220063794805	2.7175524455373267e-05
C	1.2432641907744357	-0.7571296236205195	-2.3484475544626735e-05
C	-0.06361872922556416	-1.4778206136205196	2.8135524455373265e-05
C	2.546529180774436	1.2871884963794806	-1.3324475544626734e-05
C	3.7175339507744356	0.5393389863794805	2.6555244553732664e-06
C	3.6574027907744355	-0.8568559036205196	-1.784475544626734e-06
C	2.4264501507744356	-1.5012819736205194	1.4205524455373266e-05
O	0.11601629077443587	2.6954324163794805	1.8015524455373267e-05
O	-0.11601752922556419	-2.6954357836205194	-1.9134475544626735e-05
H	-2.3547835092255642	2.5825072463794805	-1.184475544626734e-06
H	-2.5681609892255644	-2.3705727736205198	2.865524455373266e-06
H	2.5681516607744355	2.3705749963794807	-1.7644755446267339e-06
H	2.3547956107744357	-2.5825077136205197	1.3552445537326614e-07
H	-4.679615649225564	-1.0411167536205195	-2.144475544626734e-06
H	-4.5727809892255635	1.4395203563794805	1.165524455373266e-06
H	4.679614680774436	1.0411240663794805	-2.2447554462673386e-07
H	4.572784770774436	-1.4395110036205194	-1.194475544626734e-06
C	-3.687480342760627	0.15876939157721703	-6.746667125472761
C	-3.6874569933921353	0.15875642524789219	-5.349178690705399
C	-2.486471996738644	0.10707506653242434	-4.652406856313269
C	-1.2735009951187224	0.05480500754697111	-5.344981960547778
C	-1.2735017462780378	0.05486167229944119	-6.750934348266933
C	-2.4865078013287403	0.10704140544630433	-7.443461057087411
C	-4.622875195015665e-06	3.9774457117219174e-05	-4.568745815380911
C	1.273499542060569	-0.054848527720254156	-5.344931202491475
C	1.273500566609759	-0.05479786490128525	-6.750884063236581
C	3.5776080010678558e-06	-2.171517947784456e-05	-7.527120795647926
C	2.4865034096673457	-0.10703139968328655	-4.652400808454297
C	3.6874783482890177	-0.158752922943466	-5.349189974601183
C	3.6874573366938184	-0.1587475742190923	-6.746679125476664
C	2.4864743466833663	-0.1070577039382071	-7.443455543626843
O	-3.0589301970978755e-05	-1.0114818051391562e-05	-3.3500034174054796
O	2.8353022397924496e-05	2.453195407110024e-05	-8.745862907801849
H	-2.461405562602524	0.10597858628749952	-3.569100158859724
H	-2.4615396480463225	0.10598030531120112	-8.526774171491947
H	2.4615290010258963	-0.10596774812437096	-3.569086916862573
H	2.461416514009738	-0.10596480698530307	-8.5267626952404
H	-4.626218394303454	0.19918115186820273	-7.289368167757212
H	-4.626181995776535	0.19917627173763996	-4.806431576793046
H	4.626216022338916	-0.19916547773260623	-4.806487475720777
H	4.626184176708299	-0.19916313578537345	-7.289421824262
