48
n11 TS90.0
C	-3.7175346392255637	-0.5393331436205194	-5.834475544626734e-06
C	-3.6574008492255636	0.8568609163794806	6.115524455373266e-06
C	-2.4264467692255645	1.5012823363794805	-1.8464475544626733e-05
C	-1.2432632992255641	0.7571264663794806	2.9555524455373265e-05
C	-1.303740469225564	-0.6475246036205194	-2.7024475544626735e-05
C	-2.546532189225564	-1.2871873236205196	1.6705524455373264e-05
C	0.06361851077443587	1.4778169163794805	-3.2944475544626736e-05
C	1.303739350774436	0.6475220063794805	2.7175524455373267e-05
C	1.2432641907744357	-0.7571296236205195	-2.3484475544626735e-05
C	-0.06361872922556416	-1.4778206136205196	2.8135524455373265e-05
C	2.546529180774436	1.2871884963794806	-1.3324475544626734e-05
C	3.7175339507744356	0.5393389863794805	2.6555244553732664e-06
C	3.6574027907744355	-0.8568559036205196	-1.784475544626734e-06
C	2.4264501507744356	-1.5012819736205194	1.4205524455373266e-05
O	0.11601629077443587	2.6954324163794805	1.8015524455373267e-05
O	-0.11601752922556419	-2.6954357836205194	-1.9134475544626735e-05
H	-2.3547835092255642	2.5825072463794805	-1.184475544626734e-06
H	-2.5681609892255644	-2.3705727736205198	2.865524455373266e-06
H	2.5681516607744355	2.3705749963794807	-1.7644755446267339e-06
H	2.3547956107744357	-2.5825077136205197	1.3552445537326614e-07
H	-4.679615649225564	-1.0411167536205195	-2.144475544626734e-06
H	-4.5727809892255635	1.4395203563794805	1.165524455373266e-06
H	4.679614680774436	1.0411240663794805	-2.2447554462673386e-07
H	4.572784770774436	-1.4395110036205194	-1.194475544626734e-06
C	-0.030048739788331818	-0.6980939536407137	3.8096053693856446
C	0.03005097359600519	0.6981015734390877	3.8096305750539035
C	0.060046467961847684	1.3942263306574187	5.011727703797295
C	0.030207975517565915	0.702293147203541	6.22582375388833
C	-0.030211218159966188	-0.7023604188972299	6.225819237913621
C	-0.060043244224063444	-1.3942431444731704	5.01169074354361
C	0.06365943452326987	1.4778069687614614	7.500497871613855
C	0.030212433035304728	0.7023413497934731	8.775183601854328
C	-0.0302126955099215	-0.7023124342541268	8.77518111810614
C	-0.06365330984515011	-1.4778273105049662	7.500505914634268
C	0.06004139060509167	1.394227896112675	9.989310045818623
C	0.030053645079897037	0.6980831841631497	11.19139753696408
C	-0.030053602156513377	-0.6981127353289078	11.19137499456178
C	-0.06004071163879791	-1.394242441555197	9.989279504491005
O	0.11603158114266807	2.6954235724310123	7.500475226440417
O	-0.11602913075494574	-2.695443469894686	7.5005275265577325
H	0.10662662294905394	2.4765311116005635	5.036819125556779
H	-0.106627114081529	-2.4765542357269332	5.036680406824253
H	0.10662757178257717	2.476539665768256	9.96431402322428
H	-0.10662409319066489	-2.476547538171134	9.964196830361555
H	-0.05339616375451552	-1.2402916626597464	2.86999736430612
H	0.05340171448252381	1.240347030859867	2.8700362846505314
H	0.053400322449883145	1.2402823832717211	12.131005199075261
H	-0.053399797165881634	-1.240353969251879	12.130970936590774
