48
n11 PD short
C	-3.7175346392255637	-0.5393331436205194	-5.834475544626734e-06
C	-3.6574008492255636	0.8568609163794806	6.115524455373266e-06
C	-2.4264467692255645	1.5012823363794805	-1.8464475544626733e-05
C	-1.2432632992255641	0.7571264663794806	2.9555524455373265e-05
C	-1.303740469225564	-0.6475246036205194	-2.7024475544626735e-05
C	-2.546532189225564	-1.2871873236205196	1.6705524455373264e-05
C	0.06361851077443587	1.4778169163794805	-3.2944475544626736e-05
C	1.303739350774436	0.6475220063794805	2.7175524455373267e-05
C	1.2432641907744357	-0.7571296236205195	-2.3484475544626735e-05
C	-0.06361872922556416	-1.4778206136205196	2.8135524455373265e-05
C	2.546529180774436	1.2871884963794806	-1.3324475544626734e-05
C	3.7175339507744356	0.5393389863794805	2.6555244553732664e-06
C	3.6574027907744355	-0.8568559036205196	-1.784475544626734e-06
C	2.4264501507744356	-1.5012819736205194	1.4205524455373266e-05
O	0.11601629077443587	2.6954324163794805	1.8015524455373267e-05
O	-0.11601752922556419	-2.6954357836205194	-1.9134475544626735e-05
H	-2.3547835092255642	2.5825072463794805	-1.184475544626734e-06
H	-2.5681609892255644	-2.3705727736205198	2.865524455373266e-06
H	2.5681516607744355	2.3705749963794807	-1.7644755446267339e-06
H	2.3547956107744357	-2.5825077136205197	1.3552445537326614e-07
H	-4.679615649225564	-1.0411167536205195	-2.144475544626734e-06
H	-4.5727809892255635	1.4395203563794805	1.165524455373266e-06
H	4.679614680774436	1.0411240663794805	-2.2447554462673386e-07
H	4.572784770774436	-1.4395110036205194	-1.194475544626734e-06
C	-3.8095375655494212	-2.6763231220965125	3.4999918333136546
C	-3.749403775549421	-1.2801290620965124	3.5000037833136544
C	-2.518449695549422	-0.6357076420965125	3.4999792033136545
C	-1.3352662255494214	-1.3798635120965124	3.5000272233136545
C	-1.3957433955494214	-2.7845145820965125	3.4999706433136546
C	-2.6385351155494217	-3.4241773020965125	3.5000143733136544
C	-0.028384415549421543	-0.6591730620965125	3.4999647233136546
C	1.2117364244505786	-1.4894679720965125	3.5000248433136547
C	1.1512612644505784	-2.8941196020965125	3.4999741833136544
C	-0.15562165554942156	-3.6148105920965126	3.5000258033136546
C	2.4545262544505784	-0.8498014820965124	3.4999843433136544
C	3.625531024450578	-1.5976509920965123	3.5000003233136545
C	3.565399864450578	-2.9938458820965126	3.4999958833136544
C	2.334447224450578	-3.6382719520965123	3.5000118733136545
O	0.024013364450578462	0.5584424379034875	3.5000156833136544
O	-0.20802045554942158	-4.832425762096513	3.4999785333136546
H	-2.4467864355494218	0.44551726790348745	3.4999964833136548
H	-2.660163915549422	-4.507562752096513	3.5000005333136546
H	2.476148734450578	0.23358501790348765	3.4999959033136547
H	2.262792684450578	-4.719497692096512	3.4999978033136547
H	-4.771618575549422	-3.1781067320965124	3.4999955233136544
H	-4.664783915549421	-0.6974696220965125	3.4999988333136547
H	4.587611754450578	-1.0958659120965124	3.4999974433136547
H	4.480781844450578	-3.5765009820965123	3.4999964733136544
