48
n11 cofacial 5.0A
C	-3.7175346392255637	-0.5393331436205194	-5.834475544626734e-06
C	-3.6574008492255636	0.8568609163794806	6.115524455373266e-06
C	-2.4264467692255645	1.5012823363794805	-1.8464475544626733e-05
C	-1.2432632992255641	0.7571264663794806	2.9555524455373265e-05
C	-1.303740469225564	-0.6475246036205194	-2.7024475544626735e-05
C	-2.546532189225564	-1.2871873236205196	1.6705524455373264e-05
C	0.06361851077443587	1.4778169163794805	-3.2944475544626736e-05
C	1.303739350774436	0.6475220063794805	2.7175524455373267e-05
C	1.2432641907744357	-0.7571296236205195	-2.3484475544626735e-05
C	-0.06361872922556416	-1.4778206136205196	2.8135524455373265e-05
C	2.546529180774436	1.2871884963794806	-1.3324475544626734e-05
C	3.7175339507744356	0.5393389863794805	2.6555244553732664e-06
C	3.6574027907744355	-0.8568559036205196	-1.784475544626734e-06
C	2.4264501507744356	-1.5012819736205194	1.4205524455373266e-05
O	0.11601629077443587	2.6954324163794805	1.8015524455373267e-05
O	-0.11601752922556419	-2.6954357836205194	-1.9134475544626735e-05
H	-2.3547835092255642	2.5825072463794805	-1.184475544626734e-06
H	-2.5681609892255644	-2.3705727736205198	2.865524455373266e-06
H	2.5681516607744355	2.3705749963794807	-1.7644755446267339e-06
H	2.3547956107744357	-2.5825077136205197	1.3552445537326614e-07
H	-4.679615649225564	-1.0411167536205195	-2.144475544626734e-06
H	-4.5727809892255635	1.4395203563794805	1.165524455373266e-06
H	4.679614680774436	1.0411240663794805	-2.2447554462673386e-07
H	4.572784770774436	-1.4395110036205194	-1.194475544626734e-06
C	-3.7175341461024956	-0.5393386216215742	4.99999416552143
C	-3.6574003561024955	0.8568554383784258	5.000006115521431
C	-2.4264462761024963	1.5012768583784257	4.99998153552143
C	-1.243262806102496	0.7571209883784258	5.00002955552143
C	-1.303739976102496	-0.6475300816215742	4.99997297552143
C	-2.546531696102496	-1.2871928016215743	5.00001670552143
C	0.06361900389750393	1.4778114383784258	4.99996705552143
C	1.303739843897504	0.6475165283784258	5.0000271755214305
C	1.2432646838975039	-0.7571351016215743	4.99997651552143
C	-0.0636182361024961	-1.4778260916215744	5.00002813552143
C	2.546529673897504	1.2871830183784259	4.999986675521431
C	3.7175344438975038	0.5393335083784258	5.00000265552143
C	3.6574032838975037	-0.8568613816215743	4.999998215521431
C	2.4264506438975038	-1.5012874516215742	5.00001420552143
O	0.11601678389750393	2.6954269383784255	5.00001801552143
O	-0.11601703610249613	-2.6954412616215744	4.99998086552143
H	-2.354783016102496	2.5825017683784255	4.9999988155214306
H	-2.568160496102496	-2.3705782516215748	5.00000286552143
H	2.5681521538975036	2.3705695183784257	4.9999982355214305
H	2.354796103897504	-2.5825131916215747	5.0000001355214305
H	-4.679615156102496	-1.0411222316215742	4.99999785552143
H	-4.572780496102496	1.4395148783784257	5.0000011655214305
H	4.679615173897504	1.0411185883784257	4.99999977552143
H	4.5727852638975035	-1.4395164816215742	4.999998805521431
