48
n11 PD long+short
C	-3.7175346392255637	-0.5393331436205194	-5.834475544626734e-06
C	-3.6574008492255636	0.8568609163794806	6.115524455373266e-06
C	-2.4264467692255645	1.5012823363794805	-1.8464475544626733e-05
C	-1.2432632992255641	0.7571264663794806	2.9555524455373265e-05
C	-1.303740469225564	-0.6475246036205194	-2.7024475544626735e-05
C	-2.546532189225564	-1.2871873236205196	1.6705524455373264e-05
C	0.06361851077443587	1.4778169163794805	-3.2944475544626736e-05
C	1.303739350774436	0.6475220063794805	2.7175524455373267e-05
C	1.2432641907744357	-0.7571296236205195	-2.3484475544626735e-05
C	-0.06361872922556416	-1.4778206136205196	2.8135524455373265e-05
C	2.546529180774436	1.2871884963794806	-1.3324475544626734e-05
C	3.7175339507744356	0.5393389863794805	2.6555244553732664e-06
C	3.6574027907744355	-0.8568559036205196	-1.784475544626734e-06
C	2.4264501507744356	-1.5012819736205194	1.4205524455373266e-05
O	0.11601629077443587	2.6954324163794805	1.8015524455373267e-05
O	-0.11601752922556419	-2.6954357836205194	-1.9134475544626735e-05
H	-2.3547835092255642	2.5825072463794805	-1.184475544626734e-06
H	-2.5681609892255644	-2.3705727736205198	2.865524455373266e-06
H	2.5681516607744355	2.3705749963794807	-1.7644755446267339e-06
H	2.3547956107744357	-2.5825077136205197	1.3552445537326614e-07
H	-4.679615649225564	-1.0411167536205195	-2.144475544626734e-06
H	-4.5727809892255635	1.4395203563794805	1.165524455373266e-06
H	4.679614680774436	1.0411240663794805	-2.2447554462673386e-07
H	4.572784770774436	-1.4395110036205194	-1.194475544626734e-06
C	-0.9469383541571084	-2.799566079578437	3.499991415965903
C	-0.8868045641571083	-1.4033720195784372	3.5000033659659033
C	0.3441495158428909	-0.7589505995784372	3.499978785965903
C	1.5273329858428912	-1.503106469578437	3.500026805965903
C	1.4668558158428913	-2.907757539578437	3.499970225965903
C	0.2240640958428912	-3.547420259578437	3.5000139559659034
C	2.8342147958428914	-0.7824160195784372	3.499964305965903
C	4.074335635842891	-1.6127109295784372	3.5000244259659032
C	4.013860475842891	-3.0173625595784372	3.4999737659659034
C	2.706977555842891	-3.7380535495784373	3.500025385965903
C	5.317125465842891	-0.9730444395784371	3.4999839259659034
C	6.488130235842891	-1.720893949578437	3.499999905965903
C	6.42799907584289	-3.1170888395784373	3.4999954659659034
C	5.19704643584289	-3.761514909578437	3.500011455965903
O	2.886612575842891	0.43519948042156276	3.5000152659659034
O	2.6545787558428913	-4.955668719578437	3.499978115965903
H	0.4158127758428911	0.32227431042156274	3.4999960659659033
H	0.20243529584289097	-4.630805709578437	3.500000115965903
H	5.338747945842891	0.11034206042156294	3.4999954859659033
H	5.125391895842891	-4.842740649578437	3.4999973859659033
H	-1.9090193641571087	-3.301349689578437	3.4999951059659034
H	-1.8021847041571082	-0.8207125795784372	3.499998415965903
H	7.450210965842891	-1.2191088695784371	3.4999970259659032
H	7.343381055842891	-3.699743939578437	3.4999960559659034
