80
134e_H_capped_F cofacial 3.5A
C	-2.441600266504694	1.5201072524211017	-3.0124139891934918e-05
C	-2.4503815165046943	2.9103766324211016	5.443586010806508e-05
C	-1.2768592165046941	3.6029724624211017	-6.246413989193493e-05
C	-0.056276946504693726	2.8901443524211015	6.611586010806508e-05
C	-0.02818443650469371	1.4482888424211016	-0.00010074413989193492
C	-1.2838709065046938	0.7187055524211017	3.843586010806508e-05
C	1.1356430734953062	3.649917732421102	-6.834413989193492e-05
C	2.335229903495306	3.003561462421102	6.151586010806508e-05
C	2.3806274534953062	1.6140116924211017	-5.032413989193492e-05
C	1.2549588534953062	0.7681441724211016	5.028586010806508e-05
C	-1.3407499065046942	5.0897706824211015	6.831586010806508e-05
N	-0.11156276650469366	5.733707742421101	-9.94413989193492e-06
C	1.141703443495306	5.138046052421101	6.490586010806508e-05
O	2.155254503495306	5.803326612421102	-5.9854139891934916e-05
O	-2.3793867765046937	5.715158332421101	-5.008413989193492e-05
H	-3.4022791865046935	3.425901412421102	7.375860108065081e-06
F	-3.688361606504694	1.0373291324211016	3.018586010806508e-05
H	3.266312923495306	3.5558078924211016	8.98586010806508e-06
F	3.645220423495306	1.1800991624211017	2.805586010806508e-05
H	-0.13120335650469395	6.746502832421102	1.858586010806508e-05
C	-1.254959166504694	-0.7681444475788983	-6.282413989193493e-05
C	0.028184183495306048	-1.4482890175788987	-3.3241398919349194e-06
C	1.283870823495306	-0.7187058675788984	-1.871413989193492e-05
C	-2.380628076504694	-1.6140117475788984	1.7958601080650805e-06
C	-2.3352299165046935	-3.003561657578898	4.4055860108065083e-05
C	-1.1356430065046936	-3.6499178475788985	-2.646413989193492e-05
C	0.05627702349530628	-2.8901444075788985	-3.1241398919349197e-06
C	2.4416006034953064	-1.5201071175788985	-2.062413989193492e-05
C	2.450381783495306	-2.910376627578898	6.480586010806508e-05
C	1.2768594534953062	-3.6029724275788984	-4.9204139891934915e-05
C	1.3407500534953063	-5.0897709775788975	6.031586010806508e-05
N	0.11156291349530623	-5.733708137578898	-2.3541398919349194e-06
C	-1.1417033065046942	-5.138046477578898	5.4925860108065086e-05
O	-2.1552550865046936	-5.8033261675788985	-5.7764139891934914e-05
O	2.379387563495306	-5.715157747578898	-4.7804139891934915e-05
F	-3.6452209065046937	-1.1800989675788984	2.105586010806508e-05
H	-3.266313136504694	-3.5558082275788983	4.75586010806508e-06
F	3.6883617934953064	-1.0373287775788982	2.372586010806508e-05
H	3.402279753495306	-3.4259013175788984	1.5858601080650806e-06
H	0.13120349349530613	-6.746503167578897	1.612586010806508e-05
C	-2.4416003840277107	1.5201068704940501	3.4999698758600855
C	-2.450381634027711	2.91037625049405	3.5000544358600854
C	-1.2768593340277108	3.60297208049405	3.4999375358600853
C	-0.05627706402771035	2.8901439704940497	3.5000661158600854
C	-0.02818455402771033	1.44828846049405	3.499899255860085
C	-1.2838710240277105	0.7187051704940501	3.5000384358600853
C	1.1356429559722896	3.64991735049405	3.4999316558600855
C	2.3352297859722895	3.00356108049405	3.5000615158600854
C	2.3806273359722896	1.61401131049405	3.499949675860085
C	1.2549587359722896	0.76814379049405	3.5000502858600853
C	-1.3407500240277108	5.08977030049405	3.5000683158600854
N	-0.11156288402771028	5.73370736049405	3.4999900558600854
C	1.1417033259722893	5.13804567049405	3.5000649058600852
O	2.1552543859722895	5.80332623049405	3.4999401458600854
O	-2.3793868940277103	5.715157950494049	3.4999499158600855
H	-3.40227930402771	3.42590103049405	3.5000073758600854
F	-3.6883617240277107	1.03732875049405	3.5000301858600853
H	3.2663128059722895	3.55580751049405	3.5000089858600854
F	3.6452203059722894	1.1800987804940501	3.5000280558600854
H	-0.13120347402771057	6.7465024504940505	3.5000185858600856
C	-1.2549592840277106	-0.7681448295059499	3.4999371758600852
C	0.028184065972289427	-1.4482893995059503	3.4999966758600856
C	1.2838707059722894	-0.71870624950595	3.4999812858600854
C	-2.3806281940277105	-1.61401212950595	3.5000017958600855
C	-2.33523003402771	-3.0035620395059497	3.5000440558600854
C	-1.1356431240277103	-3.6499182295059502	3.4999735358600854
C	0.056276905972289654	-2.89014478950595	3.4999968758600852
C	2.4416004859722897	-1.52010749950595	3.4999793758600855
C	2.4503816659722895	-2.91037700950595	3.5000648058600854
C	1.2768593359722895	-3.60297280950595	3.4999507958600855
C	1.3407499359722896	-5.089771359505949	3.5000603158600856
N	0.1115627959722896	-5.733708519505949	3.4999976458600854
C	-1.1417034240277109	-5.13804685950595	3.5000549258600855
O	-2.15525520402771	-5.80332654950595	3.4999422358600856
O	2.3793874459722892	-5.71515812950595	3.4999521958600854
F	-3.6452210240277103	-1.18009934950595	3.5000210558600853
H	-3.2663132540277107	-3.55580860950595	3.5000047558600853
F	3.6883616759722897	-1.0373291595059497	3.5000237258600855
H	3.4022796359722896	-3.42590169950595	3.5000015858600855
H	0.1312033759722895	-6.746503549505949	3.5000161258600855
