80
134e_H_capped_F TS45.0
C	-2.441600266504694	1.5201072524211017	-3.0124139891934918e-05
C	-2.4503815165046943	2.9103766324211016	5.443586010806508e-05
C	-1.2768592165046941	3.6029724624211017	-6.246413989193493e-05
C	-0.056276946504693726	2.8901443524211015	6.611586010806508e-05
C	-0.02818443650469371	1.4482888424211016	-0.00010074413989193492
C	-1.2838709065046938	0.7187055524211017	3.843586010806508e-05
C	1.1356430734953062	3.649917732421102	-6.834413989193492e-05
C	2.335229903495306	3.003561462421102	6.151586010806508e-05
C	2.3806274534953062	1.6140116924211017	-5.032413989193492e-05
C	1.2549588534953062	0.7681441724211016	5.028586010806508e-05
C	-1.3407499065046942	5.0897706824211015	6.831586010806508e-05
N	-0.11156276650469366	5.733707742421101	-9.94413989193492e-06
C	1.141703443495306	5.138046052421101	6.490586010806508e-05
O	2.155254503495306	5.803326612421102	-5.9854139891934916e-05
O	-2.3793867765046937	5.715158332421101	-5.008413989193492e-05
H	-3.4022791865046935	3.425901412421102	7.375860108065081e-06
F	-3.688361606504694	1.0373291324211016	3.018586010806508e-05
H	3.266312923495306	3.5558078924211016	8.98586010806508e-06
F	3.645220423495306	1.1800991624211017	2.805586010806508e-05
H	-0.13120335650469395	6.746502832421102	1.858586010806508e-05
C	-1.254959166504694	-0.7681444475788983	-6.282413989193493e-05
C	0.028184183495306048	-1.4482890175788987	-3.3241398919349194e-06
C	1.283870823495306	-0.7187058675788984	-1.871413989193492e-05
C	-2.380628076504694	-1.6140117475788984	1.7958601080650805e-06
C	-2.3352299165046935	-3.003561657578898	4.4055860108065083e-05
C	-1.1356430065046936	-3.6499178475788985	-2.646413989193492e-05
C	0.05627702349530628	-2.8901444075788985	-3.1241398919349197e-06
C	2.4416006034953064	-1.5201071175788985	-2.062413989193492e-05
C	2.450381783495306	-2.910376627578898	6.480586010806508e-05
C	1.2768594534953062	-3.6029724275788984	-4.9204139891934915e-05
C	1.3407500534953063	-5.0897709775788975	6.031586010806508e-05
N	0.11156291349530623	-5.733708137578898	-2.3541398919349194e-06
C	-1.1417033065046942	-5.138046477578898	5.4925860108065086e-05
O	-2.1552550865046936	-5.8033261675788985	-5.7764139891934914e-05
O	2.379387563495306	-5.715157747578898	-4.7804139891934915e-05
F	-3.6452209065046937	-1.1800989675788984	2.105586010806508e-05
H	-3.266313136504694	-3.5558082275788983	4.75586010806508e-06
F	3.6883617934953064	-1.0373287775788982	2.372586010806508e-05
H	3.402279753495306	-3.4259013175788984	1.5858601080650806e-06
H	0.13120349349530613	-6.746503167578897	1.612586010806508e-05
C	-2.4326683137787684	1.0611156184398693	-8.427502985585921
C	-2.433528885201697	2.0443484106270504	-9.410446830498827
C	-1.256189111510162	2.5407676813927247	-9.884031617936863
C	-0.039805171648647546	2.043688002854939	-9.363198714973645
C	-0.019928253846360478	1.0240244275710635	-8.343577397985957
C	-1.2796341257833563	0.5009946088244602	-7.844958071977923
C	1.1563132587750147	2.587708825587433	-9.88403552813801
C	2.3520827828654225	2.1375204927050113	-9.41048435082501
C	2.389560069955287	1.154985949665679	-8.427564802719411
C	1.2591956706662024	0.5504313557573822	-7.844974263538174
C	-1.3116036892460234	3.591986073329821	-10.935944210025575
N	-0.07888300511933836	4.05433746063916	-11.374335448631935
C	1.1708495299164432	3.6402681669407975	-10.935924387465455
O	2.1880802821441283	4.1164526338784295	-11.392404332781474
O	-2.3465607207195327	4.028270112126288	-11.392448815708216
H	-3.382383243125713	2.4034801046918655	-9.788037626105472
F	-3.682042821712565	0.712625861661527	-8.103301221166943
H	3.2862096479352303	2.533346446673534	-9.788135680041826
F	3.6515396042389656	0.8553755440576841	-8.103347700288946
H	-0.09275154958022648	4.770512292786087	-12.090604197909382
C	-1.2591953211877334	-0.5504388189861856	-6.793469211545977
C	0.01992992308277009	-1.0240965289695954	-6.294930868453738
C	1.2796342612017446	-0.5009792920844965	-6.793462560398393
C	-2.389559534068054	-1.1550187030289296	-6.210904280936575
C	-2.352083757825173	-2.1374443970730943	-5.227875660307889
C	-1.1563113966237442	-2.5877743361603276	-4.7544662285089645
C	0.03980487325735272	-2.0436419106076404	-5.275191502504062
C	2.432669841183012	-1.061149801442278	-6.210967788965064
C	2.433528003289699	-2.0442625076362466	-5.227903652026946
C	1.2561913764432748	-2.540845004478223	-4.754482164237658
C	1.3116025564581832	-3.5918937447120687	-3.702399422326504
N	0.07888381056140234	-4.054344836439811	-3.264107765581522
C	-1.170850552380632	-3.6401821516801975	-3.702425375657388
O	-2.188078752928954	-4.116533878165488	-3.2461139578182054
O	2.3465633491512525	-4.028337301021425	-3.2460556038035167
F	-3.651540270194151	-0.8553390909808958	-6.535052516278152
H	-3.28620956034843	-2.533335372516764	-4.8502891684820195
F	3.682042760560205	-0.7125858981425971	-6.5350957051859515
H	3.382384178835234	-2.403472101318264	-4.850390895656534
H	0.09275169864012102	-4.770486391412675	-2.547805817770243
