80
134e_H_capped_F TL90.0
C	-2.441600266504694	1.5201072524211017	-3.0124139891934918e-05
C	-2.4503815165046943	2.9103766324211016	5.443586010806508e-05
C	-1.2768592165046941	3.6029724624211017	-6.246413989193493e-05
C	-0.056276946504693726	2.8901443524211015	6.611586010806508e-05
C	-0.02818443650469371	1.4482888424211016	-0.00010074413989193492
C	-1.2838709065046938	0.7187055524211017	3.843586010806508e-05
C	1.1356430734953062	3.649917732421102	-6.834413989193492e-05
C	2.335229903495306	3.003561462421102	6.151586010806508e-05
C	2.3806274534953062	1.6140116924211017	-5.032413989193492e-05
C	1.2549588534953062	0.7681441724211016	5.028586010806508e-05
C	-1.3407499065046942	5.0897706824211015	6.831586010806508e-05
N	-0.11156276650469366	5.733707742421101	-9.94413989193492e-06
C	1.141703443495306	5.138046052421101	6.490586010806508e-05
O	2.155254503495306	5.803326612421102	-5.9854139891934916e-05
O	-2.3793867765046937	5.715158332421101	-5.008413989193492e-05
H	-3.4022791865046935	3.425901412421102	7.375860108065081e-06
F	-3.688361606504694	1.0373291324211016	3.018586010806508e-05
H	3.266312923495306	3.5558078924211016	8.98586010806508e-06
F	3.645220423495306	1.1800991624211017	2.805586010806508e-05
H	-0.13120335650469395	6.746502832421102	1.858586010806508e-05
C	-1.254959166504694	-0.7681444475788983	-6.282413989193493e-05
C	0.028184183495306048	-1.4482890175788987	-3.3241398919349194e-06
C	1.283870823495306	-0.7187058675788984	-1.871413989193492e-05
C	-2.380628076504694	-1.6140117475788984	1.7958601080650805e-06
C	-2.3352299165046935	-3.003561657578898	4.4055860108065083e-05
C	-1.1356430065046936	-3.6499178475788985	-2.646413989193492e-05
C	0.05627702349530628	-2.8901444075788985	-3.1241398919349197e-06
C	2.4416006034953064	-1.5201071175788985	-2.062413989193492e-05
C	2.450381783495306	-2.910376627578898	6.480586010806508e-05
C	1.2768594534953062	-3.6029724275788984	-4.9204139891934915e-05
C	1.3407500534953063	-5.0897709775788975	6.031586010806508e-05
N	0.11156291349530623	-5.733708137578898	-2.3541398919349194e-06
C	-1.1417033065046942	-5.138046477578898	5.4925860108065086e-05
O	-2.1552550865046936	-5.8033261675788985	-5.7764139891934914e-05
O	2.379387563495306	-5.715157747578898	-4.7804139891934915e-05
F	-3.6452209065046937	-1.1800989675788984	2.105586010806508e-05
H	-3.266313136504694	-3.5558082275788983	4.75586010806508e-06
F	3.6883617934953064	-1.0373287775788982	2.372586010806508e-05
H	3.402279753495306	-3.4259013175788984	1.5858601080650806e-06
H	0.13120349349530613	-6.746503167578897	1.612586010806508e-05
C	-0.0305237240125979	1.567024083165676	9.309054172208691
C	-0.05748607098489014	2.956939673896556	9.290785374861432
C	-0.07063114394822441	3.626443926672138	8.104010396793354
C	-0.056174616107642995	2.890145595540032	6.897527580855965
C	-0.02828378869779691	1.4482861609255013	6.897492407291903
C	-0.014428059464150945	0.7434071245392901	8.1671356131533
C	-0.0706370218082844	3.626443759498907	5.691051392245077
C	-0.05748017390196926	2.957000531760353	4.504266799520038
C	-0.030545239617400542	1.5670914943240393	4.48591222708734
C	-0.014416893848863938	0.7434424097049054	5.627824540011637
C	-0.09944582199788074	5.113924697224943	8.138962591742773
N	-0.11158467993927189	5.733706567840047	6.897479990377707
C	-0.09944862555286516	5.113893499420031	5.656039889501455
O	-0.1121307718936671	5.7592043999514315	4.62973730491656
O	-0.11212240687824093	5.759276695816858	9.165235643432073
H	-0.06792144051807723	3.490784540783919	10.232473081227422
F	-0.021544334032711353	1.108681651450793	10.56497221951588
H	-0.06792257604679568	3.490925646555096	3.5626157811653965
F	-0.02154771862661901	1.1087461031179804	3.230000599390538
H	-0.13126451411306683	6.746500894186665	6.897412428487306
C	0.014403899968291738	-0.7434444279472806	8.167156754928882
C	0.02817928021956424	-1.4482898611545587	6.897488825714422
C	0.014447320342535331	-0.743408559599032	5.627845452608971
C	0.030496258152239754	-1.5670939868308589	9.309069373514292
C	0.0575852662228868	-2.957000177953892	9.290714193920824
C	0.07054177053132012	-3.6264472258153226	8.103929519654486
C	0.05623713379890056	-2.8901459319616323	6.897453319878161
C	0.030472519635132943	-1.567026447609849	4.485926464878102
C	0.05760482693392413	-2.956938859652665	4.504195334741327
C	0.07051903300907049	-3.626447574375519	5.690970342220061
C	0.09957397195975977	-5.1139239978441005	5.656018243673923
N	0.11157192852163596	-5.7337087103154625	6.8975008469845385
C	0.09956797970539061	-5.113893101005768	8.138940958442562
O	0.11201270379501051	-5.759207737621029	9.165244245964894
O	0.11202406284037136	-5.759279536327153	4.62974453498492
F	0.021596353870107957	-1.1087464487865368	10.564980856373719
H	0.06793585839690962	-3.490927215423714	10.23236541496138
F	0.02159776550893799	-1.108681756825191	3.230008563262312
H	0.06792993570382287	-3.4907857879860433	3.562507326681124
H	0.13129876262645374	-6.746502061877046	6.897568417705717
