80
134e_H_capped_F TL45.0
C	-2.441600266504694	1.5201072524211017	-3.0124139891934918e-05
C	-2.4503815165046943	2.9103766324211016	5.443586010806508e-05
C	-1.2768592165046941	3.6029724624211017	-6.246413989193493e-05
C	-0.056276946504693726	2.8901443524211015	6.611586010806508e-05
C	-0.02818443650469371	1.4482888424211016	-0.00010074413989193492
C	-1.2838709065046938	0.7187055524211017	3.843586010806508e-05
C	1.1356430734953062	3.649917732421102	-6.834413989193492e-05
C	2.335229903495306	3.003561462421102	6.151586010806508e-05
C	2.3806274534953062	1.6140116924211017	-5.032413989193492e-05
C	1.2549588534953062	0.7681441724211016	5.028586010806508e-05
C	-1.3407499065046942	5.0897706824211015	6.831586010806508e-05
N	-0.11156276650469366	5.733707742421101	-9.94413989193492e-06
C	1.141703443495306	5.138046052421101	6.490586010806508e-05
O	2.155254503495306	5.803326612421102	-5.9854139891934916e-05
O	-2.3793867765046937	5.715158332421101	-5.008413989193492e-05
H	-3.4022791865046935	3.425901412421102	7.375860108065081e-06
F	-3.688361606504694	1.0373291324211016	3.018586010806508e-05
H	3.266312923495306	3.5558078924211016	8.98586010806508e-06
F	3.645220423495306	1.1800991624211017	2.805586010806508e-05
H	-0.13120335650469395	6.746502832421102	1.858586010806508e-05
C	-1.254959166504694	-0.7681444475788983	-6.282413989193493e-05
C	0.028184183495306048	-1.4482890175788987	-3.3241398919349194e-06
C	1.283870823495306	-0.7187058675788984	-1.871413989193492e-05
C	-2.380628076504694	-1.6140117475788984	1.7958601080650805e-06
C	-2.3352299165046935	-3.003561657578898	4.4055860108065083e-05
C	-1.1356430065046936	-3.6499178475788985	-2.646413989193492e-05
C	0.05627702349530628	-2.8901444075788985	-3.1241398919349197e-06
C	2.4416006034953064	-1.5201071175788985	-2.062413989193492e-05
C	2.450381783495306	-2.910376627578898	6.480586010806508e-05
C	1.2768594534953062	-3.6029724275788984	-4.9204139891934915e-05
C	1.3407500534953063	-5.0897709775788975	6.031586010806508e-05
N	0.11156291349530623	-5.733708137578898	-2.3541398919349194e-06
C	-1.1417033065046942	-5.138046477578898	5.4925860108065086e-05
O	-2.1552550865046936	-5.8033261675788985	-5.7764139891934914e-05
O	2.379387563495306	-5.715157747578898	-4.7804139891934915e-05
F	-3.6452209065046937	-1.1800989675788984	2.105586010806508e-05
H	-3.266313136504694	-3.5558082275788983	4.75586010806508e-06
F	3.6883617934953064	-1.0373287775788982	2.372586010806508e-05
H	3.402279753495306	-3.4259013175788984	1.5858601080650806e-06
H	0.13120349349530613	-6.746503167578897	1.612586010806508e-05
C	-1.7354249542593678	1.5338481532159196	7.100894957512737
C	-1.7494963674557746	2.924014591793802	7.088036697526105
C	-0.9235893374960668	3.609846166057472	6.248777371928564
C	-0.05621983689122001	2.8901448784706987	5.395756144265511
C	-0.028255436178043096	1.4482868755521736	5.395613349743736
C	-0.9120439329199508	0.7259403591257666	6.293485117087309
C	0.7823032325820978	3.643041496840801	4.542553539299477
C	1.6344465748566208	2.989924313875124	3.703461960940139
C	1.6743902954551342	1.600268417624991	3.6904042979321523
C	0.883187982268105	0.7609092869084307	4.497929416940544
C	-0.9771524076444336	5.096845351542687	6.273584714588334
N	-0.11157367392207015	5.733706944908738	5.395668582414937
C	0.7782049546081251	5.130972139441504	4.5178908234387585
O	1.4911275701622166	5.790402761717547	3.792097058694091
O	-1.7153415290568372	5.728079423047869	6.99918559834872
H	-2.4256656262389127	3.4449047790052765	7.753877160027128
F	-2.614363351682145	1.058227510631142	7.9890057915811825
H	2.2897414040426565	3.5368041733890903	3.0375769720422854
F	2.571260352272841	1.1592003567148	2.8023961130393706
H	-0.13121398849374596	6.746502040274471	5.3956409371965695
C	-0.883197428643268	-0.7609109103200143	6.293428531750443
C	0.028181322432941747	-1.4482896585153995	5.395679833669477
C	0.9120574563798081	-0.7259415800352366	4.497895480814949
C	-1.6744254062773318	-1.6002703144173092	7.100928418120817
C	-1.6343723089482645	-2.989924234139018	7.087979290940319
C	-0.7823705737899664	-3.643044094241906	6.248745964865759
C	0.05626406274371474	-2.89014524504547	5.395654933454637
C	1.7353889518036747	-1.5338498960397096	3.6904355074552933
C	1.7495804945656874	-2.92401412561385	3.7034140198001957
C	0.9235101960968066	-3.609848846390539	4.542510088167367
C	0.9772430900733657	-5.096845055465469	4.517872731434544
N	0.1115647232242207	-5.733708687626023	5.395689212424983
C	-0.7781204998725835	-5.130972094356474	6.273560408902605
O	-1.4912115003048836	-5.7904051092798	6.999186768193868
O	1.7152725155808275	-5.728081367000858	3.7921112092771
F	-2.571226336670999	-1.1592006610770922	7.989005542504211
H	-2.28973220010533	-3.5368054958238986	7.753799489543048
F	2.61440123367834	-1.0582275927936615	2.802398782201933
H	2.4256720000254606	-3.4449057416911515	3.0374953642333167
H	0.13123826517981405	-6.7465030762143305	5.395750104977435
