80
134e_H_capped_F cofacial 5.0A
C	-2.441600266504694	1.5201072524211017	-3.0124139891934918e-05
C	-2.4503815165046943	2.9103766324211016	5.443586010806508e-05
C	-1.2768592165046941	3.6029724624211017	-6.246413989193493e-05
C	-0.056276946504693726	2.8901443524211015	6.611586010806508e-05
C	-0.02818443650469371	1.4482888424211016	-0.00010074413989193492
C	-1.2838709065046938	0.7187055524211017	3.843586010806508e-05
C	1.1356430734953062	3.649917732421102	-6.834413989193492e-05
C	2.335229903495306	3.003561462421102	6.151586010806508e-05
C	2.3806274534953062	1.6140116924211017	-5.032413989193492e-05
C	1.2549588534953062	0.7681441724211016	5.028586010806508e-05
C	-1.3407499065046942	5.0897706824211015	6.831586010806508e-05
N	-0.11156276650469366	5.733707742421101	-9.94413989193492e-06
C	1.141703443495306	5.138046052421101	6.490586010806508e-05
O	2.155254503495306	5.803326612421102	-5.9854139891934916e-05
O	-2.3793867765046937	5.715158332421101	-5.008413989193492e-05
H	-3.4022791865046935	3.425901412421102	7.375860108065081e-06
F	-3.688361606504694	1.0373291324211016	3.018586010806508e-05
H	3.266312923495306	3.5558078924211016	8.98586010806508e-06
F	3.645220423495306	1.1800991624211017	2.805586010806508e-05
H	-0.13120335650469395	6.746502832421102	1.858586010806508e-05
C	-1.254959166504694	-0.7681444475788983	-6.282413989193493e-05
C	0.028184183495306048	-1.4482890175788987	-3.3241398919349194e-06
C	1.283870823495306	-0.7187058675788984	-1.871413989193492e-05
C	-2.380628076504694	-1.6140117475788984	1.7958601080650805e-06
C	-2.3352299165046935	-3.003561657578898	4.4055860108065083e-05
C	-1.1356430065046936	-3.6499178475788985	-2.646413989193492e-05
C	0.05627702349530628	-2.8901444075788985	-3.1241398919349197e-06
C	2.4416006034953064	-1.5201071175788985	-2.062413989193492e-05
C	2.450381783495306	-2.910376627578898	6.480586010806508e-05
C	1.2768594534953062	-3.6029724275788984	-4.9204139891934915e-05
C	1.3407500534953063	-5.0897709775788975	6.031586010806508e-05
N	0.11156291349530623	-5.733708137578898	-2.3541398919349194e-06
C	-1.1417033065046942	-5.138046477578898	5.4925860108065086e-05
O	-2.1552550865046936	-5.8033261675788985	-5.7764139891934914e-05
O	2.379387563495306	-5.715157747578898	-4.7804139891934915e-05
F	-3.6452209065046937	-1.1800989675788984	2.105586010806508e-05
H	-3.266313136504694	-3.5558082275788983	4.75586010806508e-06
F	3.6883617934953064	-1.0373287775788982	2.372586010806508e-05
H	3.402279753495306	-3.4259013175788984	1.5858601080650806e-06
H	0.13120349349530613	-6.746503167578897	1.612586010806508e-05
C	-2.4416004343947177	1.520106706811028	4.999969875860076
C	-2.450381684394718	2.910376086811028	5.0000544358600765
C	-1.2768593843947178	3.602971916811028	4.999937535860076
C	-0.05627711439471747	2.890143806811028	5.000066115860076
C	-0.028184604394717455	1.448288296811028	4.999899255860076
C	-1.2838710743947175	0.718705006811028	5.000038435860076
C	1.1356429056052826	3.6499171868110283	4.999931655860076
C	2.3352297356052825	3.003560916811028	5.000061515860076
C	2.3806272856052826	1.614011146811028	4.999949675860076
C	1.2549586856052826	0.7681436268110279	5.000050285860076
C	-1.3407500743947178	5.089770136811028	5.0000683158600765
N	-0.1115629343947174	5.733707196811028	4.999990055860076
C	1.1417032756052823	5.138045506811028	5.000064905860076
O	2.1552543356052825	5.803326066811028	4.9999401458600765
O	-2.3793869443947173	5.7151577868110275	4.999949915860076
H	-3.402279354394717	3.4259008668110282	5.0000073758600765
F	-3.6883617743947177	1.037328586811028	5.000030185860076
H	3.2663127556052824	3.555807346811028	5.0000089858600765
F	3.6452202556052824	1.1800986168110281	5.000028055860076
H	-0.1312035243947177	6.746502286811029	5.000018585860076
C	-1.2549593343947176	-0.768144993188972	4.999937175860076
C	0.028184015605282303	-1.4482895631889723	4.999996675860076
C	1.2838706556052824	-0.7187064131889721	4.999981285860076
C	-2.3806282443947175	-1.614012293188972	5.000001795860076
C	-2.335230084394717	-3.0035622031889715	5.0000440558600765
C	-1.1356431743947173	-3.649918393188972	4.999973535860076
C	0.05627685560528253	-2.890144953188972	4.999996875860076
C	2.4416004356052827	-1.520107663188972	4.999979375860076
C	2.4503816156052824	-2.9103771731889716	5.0000648058600765
C	1.2768592856052825	-3.602972973188972	4.999950795860076
C	1.3407498856052826	-5.089771523188971	5.000060315860076
N	0.11156274560528248	-5.733708683188971	4.999997645860076
C	-1.1417034743947179	-5.138047023188972	5.000054925860076
O	-2.155255254394717	-5.803326713188972	4.999942235860076
O	2.3793873956052822	-5.7151582931889715	4.999952195860076
F	-3.6452210743947173	-1.180099513188972	5.000021055860076
H	-3.2663133043947177	-3.555808773188972	5.000004755860076
F	3.6883616256052827	-1.0373293231889718	5.000023725860076
H	3.4022795856052825	-3.425901863188972	5.000001585860076
H	0.1312033256052824	-6.746503713188971	5.000016125860076
