80
134e_H_capped_F PD short
C	-2.441600266504694	1.5201072524211017	-3.0124139891934918e-05
C	-2.4503815165046943	2.9103766324211016	5.443586010806508e-05
C	-1.2768592165046941	3.6029724624211017	-6.246413989193493e-05
C	-0.056276946504693726	2.8901443524211015	6.611586010806508e-05
C	-0.02818443650469371	1.4482888424211016	-0.00010074413989193492
C	-1.2838709065046938	0.7187055524211017	3.843586010806508e-05
C	1.1356430734953062	3.649917732421102	-6.834413989193492e-05
C	2.335229903495306	3.003561462421102	6.151586010806508e-05
C	2.3806274534953062	1.6140116924211017	-5.032413989193492e-05
C	1.2549588534953062	0.7681441724211016	5.028586010806508e-05
C	-1.3407499065046942	5.0897706824211015	6.831586010806508e-05
N	-0.11156276650469366	5.733707742421101	-9.94413989193492e-06
C	1.141703443495306	5.138046052421101	6.490586010806508e-05
O	2.155254503495306	5.803326612421102	-5.9854139891934916e-05
O	-2.3793867765046937	5.715158332421101	-5.008413989193492e-05
H	-3.4022791865046935	3.425901412421102	7.375860108065081e-06
F	-3.688361606504694	1.0373291324211016	3.018586010806508e-05
H	3.266312923495306	3.5558078924211016	8.98586010806508e-06
F	3.645220423495306	1.1800991624211017	2.805586010806508e-05
H	-0.13120335650469395	6.746502832421102	1.858586010806508e-05
C	-1.254959166504694	-0.7681444475788983	-6.282413989193493e-05
C	0.028184183495306048	-1.4482890175788987	-3.3241398919349194e-06
C	1.283870823495306	-0.7187058675788984	-1.871413989193492e-05
C	-2.380628076504694	-1.6140117475788984	1.7958601080650805e-06
C	-2.3352299165046935	-3.003561657578898	4.4055860108065083e-05
C	-1.1356430065046936	-3.6499178475788985	-2.646413989193492e-05
C	0.05627702349530628	-2.8901444075788985	-3.1241398919349197e-06
C	2.4416006034953064	-1.5201071175788985	-2.062413989193492e-05
C	2.450381783495306	-2.910376627578898	6.480586010806508e-05
C	1.2768594534953062	-3.6029724275788984	-4.9204139891934915e-05
C	1.3407500534953063	-5.0897709775788975	6.031586010806508e-05
N	0.11156291349530623	-5.733708137578898	-2.3541398919349194e-06
C	-1.1417033065046942	-5.138046477578898	5.4925860108065086e-05
O	-2.1552550865046936	-5.8033261675788985	-5.7764139891934914e-05
O	2.379387563495306	-5.715157747578898	-4.7804139891934915e-05
F	-3.6452209065046937	-1.1800989675788984	2.105586010806508e-05
H	-3.266313136504694	-3.5558082275788983	4.75586010806508e-06
F	3.6883617934953064	-1.0373287775788982	2.372586010806508e-05
H	3.402279753495306	-3.4259013175788984	1.5858601080650806e-06
H	0.13120349349530613	-6.746503167578897	1.612586010806508e-05
C	-5.00486036696454	1.4702276481262642	3.4999697843480084
C	-5.013641616964541	2.860497028126264	3.5000543443480083
C	-3.8401193169645413	3.553092858126264	3.4999374443480082
C	-2.619537046964541	2.840264748126264	3.5000660243480084
C	-2.591444536964541	1.398409238126264	3.499899164348008
C	-3.847131006964541	0.6688259481262642	3.5000383443480083
C	-1.427617026964541	3.6000381281262643	3.4999315643480085
C	-0.22803019696454105	2.9536818581262643	3.5000614243480084
C	-0.18263264696454093	1.5641320881262641	3.499949584348008
C	-1.308301246964541	0.718264568126264	3.5000501943480082
C	-3.9040100069645414	5.039891078126264	3.5000682243480083
N	-2.674822866964541	5.683828138126263	3.4999899643480084
C	-1.4215566569645413	5.088166448126263	3.500064814348008
O	-0.40800559696454103	5.753447008126264	3.4999400543480084
O	-4.942646876964541	5.665278728126263	3.4999498243480085
H	-5.96553928696454	3.3760218081262643	3.5000072843480083
F	-6.251621706964541	0.9874495281262641	3.5000300943480083
H	0.7030528230354589	3.505928288126264	3.5000088943480083
F	1.0819603230354589	1.1302195581262642	3.5000279643480083
H	-2.694463456964541	6.696623228126264	3.500018494348008
C	-3.818219266964541	-0.8180240518737358	3.499937084348008
C	-2.535075916964541	-1.4981686218737362	3.499996584348008
C	-1.2793892769645412	-0.7685854718737359	3.4999811943480084
C	-4.943888176964541	-1.663891351873736	3.5000017043480085
C	-4.89849001696454	-3.0534412618737354	3.5000439643480084
C	-3.698903106964541	-3.699797451873736	3.4999734443480084
C	-2.506983076964541	-2.940024011873736	3.499996784348008
C	-0.12165949696454079	-1.569986721873736	3.4999792843480084
C	-0.11287831696454106	-2.9602562318737355	3.5000647143480084
C	-1.286400646964541	-3.652852031873736	3.4999507043480085
C	-1.222510046964541	-5.1396505818737355	3.500060224348008
N	-2.451697186964541	-5.783587741873736	3.4999975543480084
C	-3.7049634069645414	-5.187926081873736	3.5000548343480085
O	-4.718515186964541	-5.8532057718737365	3.499942144348008
O	-0.18387253696454128	-5.765037351873736	3.4999521043480084
F	-6.208481006964541	-1.229978571873736	3.5000209643480082
H	-5.829573236964541	-3.6056878318737358	3.5000046643480083
F	1.1251016930354591	-1.0872083818737357	3.5000236343480084
H	0.839019653035459	-3.475780921873736	3.5000014943480084
H	-2.432056606964541	-6.796382771873735	3.5000160343480085
