80
134e_H_capped_F PD long
C	-2.441600266504694	1.5201072524211017	-3.0124139891934918e-05
C	-2.4503815165046943	2.9103766324211016	5.443586010806508e-05
C	-1.2768592165046941	3.6029724624211017	-6.246413989193493e-05
C	-0.056276946504693726	2.8901443524211015	6.611586010806508e-05
C	-0.02818443650469371	1.4482888424211016	-0.00010074413989193492
C	-1.2838709065046938	0.7187055524211017	3.843586010806508e-05
C	1.1356430734953062	3.649917732421102	-6.834413989193492e-05
C	2.335229903495306	3.003561462421102	6.151586010806508e-05
C	2.3806274534953062	1.6140116924211017	-5.032413989193492e-05
C	1.2549588534953062	0.7681441724211016	5.028586010806508e-05
C	-1.3407499065046942	5.0897706824211015	6.831586010806508e-05
N	-0.11156276650469366	5.733707742421101	-9.94413989193492e-06
C	1.141703443495306	5.138046052421101	6.490586010806508e-05
O	2.155254503495306	5.803326612421102	-5.9854139891934916e-05
O	-2.3793867765046937	5.715158332421101	-5.008413989193492e-05
H	-3.4022791865046935	3.425901412421102	7.375860108065081e-06
F	-3.688361606504694	1.0373291324211016	3.018586010806508e-05
H	3.266312923495306	3.5558078924211016	8.98586010806508e-06
F	3.645220423495306	1.1800991624211017	2.805586010806508e-05
H	-0.13120335650469395	6.746502832421102	1.858586010806508e-05
C	-1.254959166504694	-0.7681444475788983	-6.282413989193493e-05
C	0.028184183495306048	-1.4482890175788987	-3.3241398919349194e-06
C	1.283870823495306	-0.7187058675788984	-1.871413989193492e-05
C	-2.380628076504694	-1.6140117475788984	1.7958601080650805e-06
C	-2.3352299165046935	-3.003561657578898	4.4055860108065083e-05
C	-1.1356430065046936	-3.6499178475788985	-2.646413989193492e-05
C	0.05627702349530628	-2.8901444075788985	-3.1241398919349197e-06
C	2.4416006034953064	-1.5201071175788985	-2.062413989193492e-05
C	2.450381783495306	-2.910376627578898	6.480586010806508e-05
C	1.2768594534953062	-3.6029724275788984	-4.9204139891934915e-05
C	1.3407500534953063	-5.0897709775788975	6.031586010806508e-05
N	0.11156291349530623	-5.733708137578898	-2.3541398919349194e-06
C	-1.1417033065046942	-5.138046477578898	5.4925860108065086e-05
O	-2.1552550865046936	-5.8033261675788985	-5.7764139891934914e-05
O	2.379387563495306	-5.715157747578898	-4.7804139891934915e-05
F	-3.6452209065046937	-1.1800989675788984	2.105586010806508e-05
H	-3.266313136504694	-3.5558082275788983	4.75586010806508e-06
F	3.6883617934953064	-1.0373287775788982	2.372586010806508e-05
H	3.402279753495306	-3.4259013175788984	1.5858601080650806e-06
H	0.13120349349530613	-6.746503167578897	1.612586010806508e-05
C	-2.5179420350061767	5.4432534171967095	3.4999703013983403
C	-2.526723285006177	6.833522797196709	3.50005486139834
C	-1.3532009850061766	7.526118627196709	3.4999379613983406
C	-0.1326187150061762	6.813290517196709	3.5000665413983403
C	-0.10452620500617618	5.371435007196709	3.4998996813983405
C	-1.3602126750061763	4.64185171719671	3.50003886139834
C	1.0593013049938238	7.573063897196709	3.4999320813983403
C	2.2588881349938235	6.926707627196709	3.5000619413983403
C	2.3042856849938236	5.53715785719671	3.4999501013983405
C	1.1786170849938238	4.691290337196709	3.5000507113983406
C	-1.4170916750061766	9.01291684719671	3.5000687413983402
N	-0.18790453500617613	9.656853907196709	3.4999904813983402
C	1.0653616749938235	9.061192217196709	3.5000653313983405
O	2.0789127349938235	9.72647277719671	3.4999405713983402
O	-2.4557285450061763	9.638304497196708	3.4999503413983404
H	-3.478620955006176	7.34904757719671	3.5000078013983402
F	-3.7647033750061767	4.96047529719671	3.50003061139834
H	3.1899711549938234	7.4789540571967095	3.50000941139834
F	3.5688786549938234	5.10324532719671	3.50002848139834
H	-0.20754512500617642	10.66964899719671	3.5000190113983405
C	-1.3313009350061764	3.1550017171967095	3.4999376013983405
C	-0.04815758500617642	2.474857147196709	3.4999971013983404
C	1.2075290549938236	3.2044402971967094	3.4999817113983402
C	-2.4569698450061765	2.3091344171967094	3.5000022213983404
C	-2.411571685006176	0.9195845071967101	3.5000444813983402
C	-1.211984775006176	0.2732283171967096	3.4999739613983403
C	-0.02006474500617619	1.0330017571967096	3.4999973013983405
C	2.3652588349938237	2.4030390471967094	3.4999798013983403
C	2.3740400149938234	1.01276953719671	3.5000652313983402
C	1.2005176849938237	0.3201737371967097	3.4999512213983404
C	1.2644082849938238	-1.1666248128032894	3.5000607413983404
N	0.035221144993823755	-1.8105619728032896	3.4999980713983403
C	-1.2180450750061766	-1.2149003128032902	3.5000553513983403
O	-2.231596855006176	-1.8801800028032905	3.4999426613983404
O	2.3030457949938232	-1.7920115828032899	3.4999526213983403
F	-3.7215626750061763	2.7430471971967094	3.5000214813983406
H	-3.3426549050061767	0.3673379371967098	3.50000518139834
F	3.6120200249938237	2.8858173871967097	3.5000241513983403
H	3.3259379849938235	0.4972448471967097	3.5000020113983403
H	0.05486172499382366	-2.8233570028032893	3.5000165513983403
