72
101d TS90.0
C	-3.7565908281975995	-0.3848229116495714	6.251780202304974e-05
C	-3.6278205081975994	1.0489388683504286	-7.031219797695026e-05
C	-2.3429845381975998	1.6158684083504287	5.824780202304974e-05
C	-1.191617868197599	0.8318602383504285	-6.874219797695026e-05
C	-1.3208074381975994	-0.6055299416495714	7.052780202304974e-05
C	-2.593450108197599	-1.1717313716495714	-5.542219797695026e-05
C	0.1221278818024003	1.3965638083504286	2.9587802023049732e-05
C	1.2438899518024007	0.6142702283504285	-2.727219797695027e-05
C	1.1143511918024007	-0.8258185116495715	3.340780202304973e-05
C	-0.12889512819759963	-1.3954867516495715	-3.346219797695026e-05
N	2.529000001802401	1.1416340883504286	6.487802023049734e-06
C	3.6929246918024003	0.37587872835042857	-3.6242197976950266e-05
C	3.5664902518024006	-1.0285032516495716	3.2057802023049734e-05
N	2.284621671802401	-1.5740611916495713	-1.601219797695027e-05
C	4.9618304018024	0.9498148183504286	4.975780202304974e-05
C	6.1049082118024005	0.14821941835042862	-3.442219797695027e-05
C	5.980223541802401	-1.2358833816495713	1.6667802023049734e-05
C	4.712250431802401	-1.8201056316495716	-1.5712197976950268e-05
H	2.6238719018024006	2.1446726483504284	6.987802023049733e-06
H	2.1989490418024005	-2.5779336216495716	-1.2219797695026682e-07
H	0.22450361180240064	2.4788431783504286	-1.5432197976950267e-05
H	-2.247052428197599	2.6987508183504287	-6.012197976950267e-06
H	-2.6921129181975996	-2.254364251649571	6.407802023049734e-06
H	-0.22110904819759947	-2.4786729116495714	1.5397802023049734e-05
H	4.609808611802401	-2.901925651649571	-7.092197976950267e-06
H	5.0548430818024	2.0324845483504284	-1.2972197976950267e-05
C	-4.812949948197599	1.8403827083504285	2.3107802023049733e-05
C	-6.052666448197599	1.2571852983504286	-5.882197976950266e-06
C	-6.1797106481976	-0.15788318164957138	7.667802023049732e-06
C	-5.0636917081976	-0.9524885516495716	-2.4192197976950268e-05
H	-4.7158046681976	2.9225263183504286	-1.0621979769502668e-06
H	-6.945497948197599	1.8747251283504287	-1.992197976950267e-06
H	-7.1681387981976	-0.6068016116495714	2.4278020230497332e-06
H	-5.160893498197599	-2.0346115916495715	-8.221979769502668e-07
H	6.861101941802401	-1.8682929016495713	-7.921979769502669e-07
H	7.0846329618024	0.6130105883504285	5.7978020230497336e-06
C	-0.06452546561462877	-0.7168559635348523	6.248464734083863
C	0.06454280276212293	0.7168790231569588	6.248307318907096
C	0.12529617679375757	1.3938819223338577	7.477204666820246
C	0.06471897497957292	0.7188555576812133	8.694161463581864
C	-0.06468275291918674	-0.7185155435202326	8.694226279535595
C	-0.12527596026232005	-1.3937082754734336	7.477408019217474
C	0.1255357934943853	1.3962264399199622	9.952051772696068
C	0.06480421463842159	0.7202664089945539	11.139369380648525
C	-0.06476277338082442	-0.7198197922484576	11.139328097711271
C	-0.12548827691277506	-1.3958240250626543	9.952098545026569
N	0.12212463182099509	1.358036976000386	12.372083279418193
C	0.06319254371846608	0.702244744739738	13.599912874922484
C	-0.06317180325734258	-0.7021435377942077	13.599765475953383
N	-0.12207502248323382	-1.3576743711677168	12.371909514588026
C	0.12448555651917004	1.384773168535203	14.812316463239586
C	0.06223030338623629	0.6915651094324444	16.022592854133077
C	-0.062293801631250596	-0.6925521287319355	16.022371954066415
C	-0.12455034530094293	-1.38519620614057	14.811818464571779
H	0.21236422854932704	2.3614920872690557	12.37674000657611
H	-0.2123315359170601	-2.361134603828905	12.376489770917066
H	0.22294983467601973	2.4789519802890756	9.957085226828529
H	0.22273148679263427	2.4766291594403755	7.475766386794645
H	-0.22270849526004416	-2.4764517852675505	7.476104224841766
H	-0.22290551892451502	-2.4785422856516437	9.957267277036566
H	-0.22188768526307454	-2.46747523697151	14.806678045838414
H	0.221876950648307	2.4670491503733376	14.807989533613117
C	0.12554592046649246	1.3962667033970344	4.997057483852437
C	0.0636040949670877	0.707160088836995	3.8145552621772394
C	-0.06366393457059182	-0.7078882635952758	3.814757655518351
C	-0.12556479347862917	-1.3965713793432923	4.997457879259207
H	0.22288512662448315	2.4783928747757504	4.9968936666589805
H	0.11152753095476149	1.2401042750858757	2.870003851363373
H	-0.1116348572723315	-1.2413755664804924	2.8705076606711453
H	-0.22290182115930984	-2.4786822581795107	4.99756357126552
H	-0.1116261033156959	-1.241314175788935	16.956350056913784
H	0.11151254430307425	1.2400245975631825	16.956752834917825
