72
101d TS45.0
C	-3.7565908281975995	-0.3848229116495714	6.251780202304974e-05
C	-3.6278205081975994	1.0489388683504286	-7.031219797695026e-05
C	-2.3429845381975998	1.6158684083504287	5.824780202304974e-05
C	-1.191617868197599	0.8318602383504285	-6.874219797695026e-05
C	-1.3208074381975994	-0.6055299416495714	7.052780202304974e-05
C	-2.593450108197599	-1.1717313716495714	-5.542219797695026e-05
C	0.1221278818024003	1.3965638083504286	2.9587802023049732e-05
C	1.2438899518024007	0.6142702283504285	-2.727219797695027e-05
C	1.1143511918024007	-0.8258185116495715	3.340780202304973e-05
C	-0.12889512819759963	-1.3954867516495715	-3.346219797695026e-05
N	2.529000001802401	1.1416340883504286	6.487802023049734e-06
C	3.6929246918024003	0.37587872835042857	-3.6242197976950266e-05
C	3.5664902518024006	-1.0285032516495716	3.2057802023049734e-05
N	2.284621671802401	-1.5740611916495713	-1.601219797695027e-05
C	4.9618304018024	0.9498148183504286	4.975780202304974e-05
C	6.1049082118024005	0.14821941835042862	-3.442219797695027e-05
C	5.980223541802401	-1.2358833816495713	1.6667802023049734e-05
C	4.712250431802401	-1.8201056316495716	-1.5712197976950268e-05
H	2.6238719018024006	2.1446726483504284	6.987802023049733e-06
H	2.1989490418024005	-2.5779336216495716	-1.2219797695026682e-07
H	0.22450361180240064	2.4788431783504286	-1.5432197976950267e-05
H	-2.247052428197599	2.6987508183504287	-6.012197976950267e-06
H	-2.6921129181975996	-2.254364251649571	6.407802023049734e-06
H	-0.22110904819759947	-2.4786729116495714	1.5397802023049734e-05
H	4.609808611802401	-2.901925651649571	-7.092197976950267e-06
H	5.0548430818024	2.0324845483504284	-1.2972197976950267e-05
C	-4.812949948197599	1.8403827083504285	2.3107802023049733e-05
C	-6.052666448197599	1.2571852983504286	-5.882197976950266e-06
C	-6.1797106481976	-0.15788318164957138	7.667802023049732e-06
C	-5.0636917081976	-0.9524885516495716	-2.4192197976950268e-05
H	-4.7158046681976	2.9225263183504286	-1.0621979769502668e-06
H	-6.945497948197599	1.8747251283504287	-1.992197976950267e-06
H	-7.1681387981976	-0.6068016116495714	2.4278020230497332e-06
H	-5.160893498197599	-2.0346115916495715	-8.221979769502668e-07
H	6.861101941802401	-1.8682929016495713	-7.921979769502669e-07
H	7.0846329618024	0.6130105883504285	5.7978020230497336e-06
C	-2.675235770751882	-0.48208046444253605	4.936797911687121
C	-2.5463215478393586	0.9516683751366785	4.936590832968733
C	-1.6200633803719895	1.550840778873829	5.805642515815019
C	-0.8236154669342557	0.7987464542591924	6.6660719920669855
C	-0.9529264738608821	-0.6386328053930178	6.666218151692777
C	-1.8705168402958443	-1.2367600907011858	5.805709516815817
C	0.12311605297190081	1.3964514807157042	7.555603418070246
C	0.8985562071536429	0.6452987294788295	8.395124413534226
C	0.7689823007969051	-0.7947868498004957	8.395139981876468
C	-0.12788483369448772	-1.3956010689242668	7.55559549973289
N	1.8240417476024922	1.204999571200526	9.266807822106951
C	2.6298166268122	0.47144858942273127	10.134985084164414
C	2.503372740149126	-0.9329325406939358	10.13493095937335
N	1.5797215533959397	-1.5107009363839359	9.266672535429063
C	3.544986022999057	1.077192202346837	10.992343816175541
C	4.335063653721329	0.3073381319530963	11.848079826772441
C	4.210403161629269	-1.0767668417498009	11.847961533470318
C	3.2955888675213396	-1.6927446864572482	10.991948946967073
H	1.9175579562445455	2.2081600332383062	9.270099688157638
H	1.492698493420736	-2.5144519373087375	9.269923792528296
H	0.22405849757034527	2.47885972962758	7.559129380839124
H	-1.5236630954663677	2.6336810907578134	5.804578666710125
H	-1.9688462060964553	-2.319422953177365	5.804832708242486
H	-0.22164431638357623	-2.4786482535556633	7.559286287249345
H	3.194637172868925	-2.7746986965713556	10.988321609538126
H	3.639308465021822	2.1597441597900793	10.989238465829189
C	-3.366504738228451	1.7102967100372124	4.051888773603453
C	-4.261247810201609	1.0960797250856082	3.2157138213378547
C	-4.388364971433156	-0.31898219422117485	3.2158683366719867
C	-3.617338627113018	-1.0825662660898105	4.052142042488127
H	-3.2692913007817705	2.7924341912347193	4.051754454523954
H	-4.878539382484323	1.6888433529353968	2.5478171786371266
H	-5.101337990389348	-0.7926692015977832	2.5481797432269344
H	-3.71459105503725	-2.1646847526256097	4.0522346951484485
H	4.818835547873042	-1.6846783605178848	12.508372143316066
H	5.0422521051095766	0.7966354218222526	12.508658418190578
