72
101d cofacial 5.0A
C	-3.7565908281975995	-0.3848229116495714	6.251780202304974e-05
C	-3.6278205081975994	1.0489388683504286	-7.031219797695026e-05
C	-2.3429845381975998	1.6158684083504287	5.824780202304974e-05
C	-1.191617868197599	0.8318602383504285	-6.874219797695026e-05
C	-1.3208074381975994	-0.6055299416495714	7.052780202304974e-05
C	-2.593450108197599	-1.1717313716495714	-5.542219797695026e-05
C	0.1221278818024003	1.3965638083504286	2.9587802023049732e-05
C	1.2438899518024007	0.6142702283504285	-2.727219797695027e-05
C	1.1143511918024007	-0.8258185116495715	3.340780202304973e-05
C	-0.12889512819759963	-1.3954867516495715	-3.346219797695026e-05
N	2.529000001802401	1.1416340883504286	6.487802023049734e-06
C	3.6929246918024003	0.37587872835042857	-3.6242197976950266e-05
C	3.5664902518024006	-1.0285032516495716	3.2057802023049734e-05
N	2.284621671802401	-1.5740611916495713	-1.601219797695027e-05
C	4.9618304018024	0.9498148183504286	4.975780202304974e-05
C	6.1049082118024005	0.14821941835042862	-3.442219797695027e-05
C	5.980223541802401	-1.2358833816495713	1.6667802023049734e-05
C	4.712250431802401	-1.8201056316495716	-1.5712197976950268e-05
H	2.6238719018024006	2.1446726483504284	6.987802023049733e-06
H	2.1989490418024005	-2.5779336216495716	-1.2219797695026682e-07
H	0.22450361180240064	2.4788431783504286	-1.5432197976950267e-05
H	-2.247052428197599	2.6987508183504287	-6.012197976950267e-06
H	-2.6921129181975996	-2.254364251649571	6.407802023049734e-06
H	-0.22110904819759947	-2.4786729116495714	1.5397802023049734e-05
H	4.609808611802401	-2.901925651649571	-7.092197976950267e-06
H	5.0548430818024	2.0324845483504284	-1.2972197976950267e-05
C	-4.812949948197599	1.8403827083504285	2.3107802023049733e-05
C	-6.052666448197599	1.2571852983504286	-5.882197976950266e-06
C	-6.1797106481976	-0.15788318164957138	7.667802023049732e-06
C	-5.0636917081976	-0.9524885516495716	-2.4192197976950268e-05
H	-4.7158046681976	2.9225263183504286	-1.0621979769502668e-06
H	-6.945497948197599	1.8747251283504287	-1.992197976950267e-06
H	-7.1681387981976	-0.6068016116495714	2.4278020230497332e-06
H	-5.160893498197599	-2.0346115916495715	-8.221979769502668e-07
H	6.861101941802401	-1.8682929016495713	-7.921979769502669e-07
H	7.0846329618024	0.6130105883504285	5.7978020230497336e-06
C	-3.7565903607112356	-0.38483848202151194	5.000062517777758
C	-3.6278200407112355	1.048923297978488	4.999929687777758
C	-2.342984070711236	1.615852837978488	5.000058247777758
C	-1.1916174007112352	0.831844667978488	4.999931257777758
C	-1.3208069707112355	-0.605545512021512	5.000070527777758
C	-2.5934496407112353	-1.171746942021512	4.999944577777758
C	0.12212834928876413	1.396548237978488	5.000029587777758
C	1.2438904192887645	0.614254657978488	4.999972727777758
C	1.1143516592887646	-0.8258340820215121	5.000033407777758
C	-0.12889466071123581	-1.3955023220215121	4.999966537777758
N	2.5290004692887647	1.141618517978488	5.000006487777758
C	3.692925159288764	0.375863157978488	4.999963757777758
C	3.5664907192887645	-1.0285188220215122	5.000032057777758
N	2.2846221392887647	-1.574076762021512	4.999983987777758
C	4.961830869288764	0.949799247978488	5.000049757777758
C	6.104908679288764	0.14820384797848804	4.999965577777758
C	5.980224009288764	-1.235898952021512	5.000016667777758
C	4.712250899288764	-1.8201212020215123	4.999984287777758
H	2.6238723692887644	2.1446570779784877	5.000006987777758
H	2.1989495092887643	-2.5779491920215123	4.999999877777758
H	0.22450407928876445	2.478827607978488	4.999984567777758
H	-2.2470519607112354	2.698735247978488	4.999993987777758
H	-2.6921124507112357	-2.254379822021512	5.000006407777758
H	-0.22110858071123565	-2.478688482021512	5.000015397777758
H	4.609809079288764	-2.9019412220215117	4.999992907777758
H	5.054843549288764	2.0324689779784877	4.999987027777758
C	-4.812949480711236	1.8403671379784878	5.000023107777758
C	-6.052665980711236	1.257169727978488	4.999994117777758
C	-6.179710180711236	-0.15789875202151196	5.000007667777758
C	-5.063691240711236	-0.9525041220215121	4.999975807777758
H	-4.715804200711236	2.922510747978488	4.999998937777758
H	-6.945497480711236	1.874709557978488	4.999998007777758
H	-7.168138330711237	-0.6068171820215119	5.000002427777758
H	-5.160893030711236	-2.034627162021512	4.999999177777758
H	6.8611024092887645	-1.868308472021512	4.999999207777758
H	7.084633429288764	0.612995017978488	5.000005797777758
