72
101d cofacial 4.5A
C	-3.7565908281975995	-0.3848229116495714	6.251780202304974e-05
C	-3.6278205081975994	1.0489388683504286	-7.031219797695026e-05
C	-2.3429845381975998	1.6158684083504287	5.824780202304974e-05
C	-1.191617868197599	0.8318602383504285	-6.874219797695026e-05
C	-1.3208074381975994	-0.6055299416495714	7.052780202304974e-05
C	-2.593450108197599	-1.1717313716495714	-5.542219797695026e-05
C	0.1221278818024003	1.3965638083504286	2.9587802023049732e-05
C	1.2438899518024007	0.6142702283504285	-2.727219797695027e-05
C	1.1143511918024007	-0.8258185116495715	3.340780202304973e-05
C	-0.12889512819759963	-1.3954867516495715	-3.346219797695026e-05
N	2.529000001802401	1.1416340883504286	6.487802023049734e-06
C	3.6929246918024003	0.37587872835042857	-3.6242197976950266e-05
C	3.5664902518024006	-1.0285032516495716	3.2057802023049734e-05
N	2.284621671802401	-1.5740611916495713	-1.601219797695027e-05
C	4.9618304018024	0.9498148183504286	4.975780202304974e-05
C	6.1049082118024005	0.14821941835042862	-3.442219797695027e-05
C	5.980223541802401	-1.2358833816495713	1.6667802023049734e-05
C	4.712250431802401	-1.8201056316495716	-1.5712197976950268e-05
H	2.6238719018024006	2.1446726483504284	6.987802023049733e-06
H	2.1989490418024005	-2.5779336216495716	-1.2219797695026682e-07
H	0.22450361180240064	2.4788431783504286	-1.5432197976950267e-05
H	-2.247052428197599	2.6987508183504287	-6.012197976950267e-06
H	-2.6921129181975996	-2.254364251649571	6.407802023049734e-06
H	-0.22110904819759947	-2.4786729116495714	1.5397802023049734e-05
H	4.609808611802401	-2.901925651649571	-7.092197976950267e-06
H	5.0548430818024	2.0324845483504284	-1.2972197976950267e-05
C	-4.812949948197599	1.8403827083504285	2.3107802023049733e-05
C	-6.052666448197599	1.2571852983504286	-5.882197976950266e-06
C	-6.1797106481976	-0.15788318164957138	7.667802023049732e-06
C	-5.0636917081976	-0.9524885516495716	-2.4192197976950268e-05
H	-4.7158046681976	2.9225263183504286	-1.0621979769502668e-06
H	-6.945497948197599	1.8747251283504287	-1.992197976950267e-06
H	-7.1681387981976	-0.6068016116495714	2.4278020230497332e-06
H	-5.160893498197599	-2.0346115916495715	-8.221979769502668e-07
H	6.861101941802401	-1.8682929016495713	-7.921979769502669e-07
H	7.0846329618024	0.6130105883504285	5.7978020230497336e-06
C	-3.756590407459872	-0.38483692498431793	4.500062517780185
C	-3.627820087459872	1.048924855015682	4.499929687780185
C	-2.3429841174598725	1.615854395015682	4.500058247780185
C	-1.1916174474598715	0.8318462250156821	4.499931257780185
C	-1.3208070174598718	-0.6055439549843179	4.500070527780185
C	-2.593449687459872	-1.171745384984318	4.499944577780185
C	0.12212830254012776	1.396549795015682	4.500029587780184
C	1.2438903725401282	0.6142562150156821	4.499972727780184
C	1.1143516125401283	-0.825832524984318	4.500033407780185
C	-0.1288947074598722	-1.395500764984318	4.4999665377801845
N	2.529000422540128	1.141620075015682	4.500006487780184
C	3.6929251125401277	0.375864715015682	4.4999637577801845
C	3.566490672540128	-1.0285172649843182	4.500032057780184
N	2.284622092540128	-1.5740752049843179	4.499983987780184
C	4.9618308225401275	0.9498008050156821	4.500049757780184
C	6.104908632540128	0.1482054050156821	4.499965577780184
C	5.980223962540128	-1.235897394984318	4.5000166677801845
C	4.712250852540128	-1.8201196449843182	4.499984287780184
H	2.623872322540128	2.144658635015682	4.500006987780185
H	2.198949462540128	-2.577947634984318	4.499999877780184
H	0.22450403254012807	2.478829165015682	4.499984567780184
H	-2.247052007459872	2.6987368050156824	4.499993987780185
H	-2.6921124974598722	-2.2543782649843176	4.500006407780185
H	-0.22110862745987203	-2.4786869249843178	4.500015397780184
H	4.609809032540128	-2.9019396649843174	4.499992907780184
H	5.054843502540128	2.032470535015682	4.499987027780184
C	-4.812949527459872	1.840368695015682	4.500023107780184
C	-6.052666027459872	1.257171285015682	4.499994117780185
C	-6.179710227459872	-0.1578971949843179	4.500007667780184
C	-5.063691287459872	-0.9525025649843181	4.499975807780184
H	-4.7158042474598725	2.9225123050156823	4.499998937780185
H	-6.945497527459872	1.874711115015682	4.499998007780184
H	-7.168138377459873	-0.6068156249843178	4.500002427780185
H	-5.160893077459872	-2.034625604984318	4.499999177780184
H	6.861102362540128	-1.868306914984318	4.499999207780185
H	7.084633382540128	0.612996575015682	4.500005797780185
