72
101d TS45.0anti
C	-3.7565908281975995	-0.3848229116495714	6.251780202304974e-05
C	-3.6278205081975994	1.0489388683504286	-7.031219797695026e-05
C	-2.3429845381975998	1.6158684083504287	5.824780202304974e-05
C	-1.191617868197599	0.8318602383504285	-6.874219797695026e-05
C	-1.3208074381975994	-0.6055299416495714	7.052780202304974e-05
C	-2.593450108197599	-1.1717313716495714	-5.542219797695026e-05
C	0.1221278818024003	1.3965638083504286	2.9587802023049732e-05
C	1.2438899518024007	0.6142702283504285	-2.727219797695027e-05
C	1.1143511918024007	-0.8258185116495715	3.340780202304973e-05
C	-0.12889512819759963	-1.3954867516495715	-3.346219797695026e-05
N	2.529000001802401	1.1416340883504286	6.487802023049734e-06
C	3.6929246918024003	0.37587872835042857	-3.6242197976950266e-05
C	3.5664902518024006	-1.0285032516495716	3.2057802023049734e-05
N	2.284621671802401	-1.5740611916495713	-1.601219797695027e-05
C	4.9618304018024	0.9498148183504286	4.975780202304974e-05
C	6.1049082118024005	0.14821941835042862	-3.442219797695027e-05
C	5.980223541802401	-1.2358833816495713	1.6667802023049734e-05
C	4.712250431802401	-1.8201056316495716	-1.5712197976950268e-05
H	2.6238719018024006	2.1446726483504284	6.987802023049733e-06
H	2.1989490418024005	-2.5779336216495716	-1.2219797695026682e-07
H	0.22450361180240064	2.4788431783504286	-1.5432197976950267e-05
H	-2.247052428197599	2.6987508183504287	-6.012197976950267e-06
H	-2.6921129181975996	-2.254364251649571	6.407802023049734e-06
H	-0.22110904819759947	-2.4786729116495714	1.5397802023049734e-05
H	4.609808611802401	-2.901925651649571	-7.092197976950267e-06
H	5.0548430818024	2.0324845483504284	-1.2972197976950267e-05
C	-4.812949948197599	1.8403827083504285	2.3107802023049733e-05
C	-6.052666448197599	1.2571852983504286	-5.882197976950266e-06
C	-6.1797106481976	-0.15788318164957138	7.667802023049732e-06
C	-5.0636917081976	-0.9524885516495716	-2.4192197976950268e-05
H	-4.7158046681976	2.9225263183504286	-1.0621979769502668e-06
H	-6.945497948197599	1.8747251283504287	-1.992197976950267e-06
H	-7.1681387981976	-0.6068016116495714	2.4278020230497332e-06
H	-5.160893498197599	-2.0346115916495715	-8.221979769502668e-07
H	6.861101941802401	-1.8682929016495713	-7.921979769502669e-07
H	7.0846329618024	0.6130105883504285	5.7978020230497336e-06
C	-2.6752371784908253	-0.48203357747290987	-10.11967273812039
C	-2.546322955578302	0.9517152621063047	-10.119879816838777
C	-1.6200647881109327	1.5508876658434552	-9.250828133992492
C	-0.8236168746731989	0.7987933412288187	-8.390398657740525
C	-0.9529278815998253	-0.6385859184233915	-8.390252498114732
C	-1.8705182480347875	-1.2367132037315596	-9.250761132991693
C	0.12311464523295758	1.3964983676853304	-7.500867231737264
C	0.8985547994146997	0.6453456164484558	-6.6613462362732845
C	0.7689808930579619	-0.7947399628308695	-6.6613306679310424
C	-0.12788624143343097	-1.3955541819546406	-7.50087515007462
N	1.824040339863549	1.205046458170152	-5.789662827700559
C	2.6298152190732567	0.47149547639235745	-4.921485565643096
C	2.503371332410183	-0.9328856537243095	-4.92153969043416
N	1.5797201456569965	-1.5106540494143097	-5.789798114378447
C	3.544984615260114	1.0772390893164632	-4.06412683363197
C	4.335062245982386	0.30738501892272246	-3.208390823035069
C	4.210401753890326	-1.0767199547801747	-3.2085091163371917
C	3.2955874597823964	-1.692697799487622	-4.0645217028404375
H	1.9175565485056023	2.2082069202079326	-5.786370961649872
H	1.4926970856817927	-2.514405050339111	-5.786546857279215
H	0.22405708983140202	2.4789066165972065	-7.497341268968386
H	-1.5236645032053109	2.63372797772744	-9.251891983097385
H	-1.9688476138353985	-2.3193760662077385	-9.251637941565024
H	-0.22164572412251948	-2.478601366586037	-7.497184362558165
H	3.194635765129982	-2.774651809601729	-4.068149040269385
H	3.639307057282879	2.1597910467597057	-4.067232183978321
C	-3.3665061459673944	1.7103435970068386	-11.004581876204057
C	-4.261249217940552	1.0961266120552344	-11.840756828469654
C	-4.3883663791720995	-0.31893530725154867	-11.840602313135523
C	-3.6173400348519613	-1.0825193791201844	-11.004328607319383
H	-3.2692927085207137	2.7924810782043457	-11.004716195283557
H	-4.8785407902232665	1.688890239905023	-12.508653471170383
H	-5.1013393981282915	-0.7926223146281569	-12.508290906580577
H	-3.714592462776193	-2.1646378656559833	-11.004235954659062
H	4.818834140134099	-1.6846314735482586	-2.548098506491443
H	5.042250697370633	0.7966823087918788	-2.5478122316169323
