60
n02 cofacial 4.5A
C	-2.388770706870951	-0.7865566550358614	-3.050551094775366e-05
C	-2.4632238468709513	0.6449046049641386	3.786448905224634e-05
C	-1.2861864868709514	1.3951915149641385	-5.4625510947753664e-05
C	-0.030991906870951436	0.7191667849641387	7.654448905224635e-05
C	0.030991923129048526	-0.7191670350358614	-7.657551094775365e-05
C	-1.181671666870951	-1.4584833850358612	3.811448905224634e-05
C	1.1816717231290488	1.4584832949641386	-3.831551094775366e-05
C	2.388770743129049	0.7865563649641386	3.085448905224634e-05
C	2.4632240031290484	-0.6449050250358614	-3.819551094775366e-05
C	1.2861865031290485	-1.3951914650358614	5.355448905224634e-05
C	-1.3315846668709517	2.8884778449641386	4.20448905224634e-06
N	-0.07719459687095132	3.514685614964139	1.068448905224634e-05
C	1.1734625931290488	2.936745044964139	1.220448905224634e-05
O	2.1892008631290487	3.6090993049641384	-6.91551094775366e-06
O	-2.3304505268709512	3.566163594964139	-3.719551094775366e-05
C	-1.1734624468709516	-2.9367450950358616	-1.201551094775366e-05
N	0.07719467312904849	-3.514685845035862	-1.152551094775366e-05
C	1.3315846031290488	-2.888477785035861	-3.9855109477536605e-06
O	2.3304500931290484	-3.5661640950358615	3.760448905224634e-05
O	-2.189200476870951	-3.609099585035861	7.80448905224634e-06
S	3.997013463129049	1.4673304249641386	-4.44551094775366e-06
C	4.606625833129049	-0.1906105050358614	-5.35551094775366e-06
N	3.7502244731290486	-1.1504034550358613	1.4044890522463398e-06
N	-3.7502241368709512	1.1504038449641385	-1.1855109477536602e-06
C	-4.6066258268709515	0.19061111496413863	5.244489052246339e-06
S	-3.9970137668709516	-1.4673300050358615	4.434489052246339e-06
H	-0.10391111687095123	4.527294264964139	2.2564489052246338e-05
H	0.10391122312904866	-4.527294375035861	-2.2585510947753662e-05
H	-5.677596196870951	0.36214837496413865	6.394489052246339e-06
H	5.677596363129048	-0.3621469250358613	-6.20551094775366e-06
C	-2.3887707816333696	-0.7865474244670081	4.499969494479585
C	-2.46322392163337	0.6449138355329919	4.5000378644795855
C	-1.2861865616333699	1.3952007455329918	4.499945374479585
C	-0.030991981633369945	0.7191760155329919	4.500076544479585
C	0.030991848366630017	-0.7191578044670082	4.499923424479585
C	-1.1816717416333695	-1.458474154467008	4.500038114479585
C	1.1816716483666303	1.458492525532992	4.499961684479585
C	2.3887706683666305	0.7865655955329919	4.5000308544795855
C	2.46322392836663	-0.6448957944670082	4.499961804479585
C	1.28618642836663	-1.3951822344670082	4.500053554479585
C	-1.3315847416333702	2.888487075532992	4.500004204479585
N	-0.07719467163336982	3.514694845532992	4.5000106844795855
C	1.1734625183666303	2.936754275532992	4.500012204479585
O	2.1892007883666302	3.6091085355329917	4.499993084479585
O	-2.3304506016333697	3.566172825532992	4.499962804479585
C	-1.17346252163337	-2.9367358644670083	4.499987984479585
N	0.07719459836662998	-3.5146766144670085	4.4999884744795855
C	1.3315845283666303	-2.888468554467008	4.499996014479585
O	2.33045001836663	-3.5661548644670082	4.500037604479585
O	-2.1892005516333697	-3.609090354467008	4.500007804479585
S	3.9970133883666303	1.4673396555329918	4.499995554479585
C	4.60662575836663	-0.1906012744670081	4.499994644479585
N	3.75022439836663	-1.150394224467008	4.500001404479585
N	-3.7502242116333697	1.1504130755329918	4.499998814479585
C	-4.60662590163337	0.19062034553299192	4.500005244479585
S	-3.99701384163337	-1.4673207744670083	4.500004434479585
H	-0.10391119163336973	4.527303495532992	4.500022564479585
H	0.10391114836663015	-4.527285144467008	4.499977414479585
H	-5.677596271633369	0.362157605532992	4.500006394479585
H	5.6775962883666296	-0.362137694467008	4.499993794479585
