60
n02 cofacial 5.0A
C	-2.388770706870951	-0.7865566550358614	-3.050551094775366e-05
C	-2.4632238468709513	0.6449046049641386	3.786448905224634e-05
C	-1.2861864868709514	1.3951915149641385	-5.4625510947753664e-05
C	-0.030991906870951436	0.7191667849641387	7.654448905224635e-05
C	0.030991923129048526	-0.7191670350358614	-7.657551094775365e-05
C	-1.181671666870951	-1.4584833850358612	3.811448905224634e-05
C	1.1816717231290488	1.4584832949641386	-3.831551094775366e-05
C	2.388770743129049	0.7865563649641386	3.085448905224634e-05
C	2.4632240031290484	-0.6449050250358614	-3.819551094775366e-05
C	1.2861865031290485	-1.3951914650358614	5.355448905224634e-05
C	-1.3315846668709517	2.8884778449641386	4.20448905224634e-06
N	-0.07719459687095132	3.514685614964139	1.068448905224634e-05
C	1.1734625931290488	2.936745044964139	1.220448905224634e-05
O	2.1892008631290487	3.6090993049641384	-6.91551094775366e-06
O	-2.3304505268709512	3.566163594964139	-3.719551094775366e-05
C	-1.1734624468709516	-2.9367450950358616	-1.201551094775366e-05
N	0.07719467312904849	-3.514685845035862	-1.152551094775366e-05
C	1.3315846031290488	-2.888477785035861	-3.9855109477536605e-06
O	2.3304500931290484	-3.5661640950358615	3.760448905224634e-05
O	-2.189200476870951	-3.609099585035861	7.80448905224634e-06
S	3.997013463129049	1.4673304249641386	-4.44551094775366e-06
C	4.606625833129049	-0.1906105050358614	-5.35551094775366e-06
N	3.7502244731290486	-1.1504034550358613	1.4044890522463398e-06
N	-3.7502241368709512	1.1504038449641385	-1.1855109477536602e-06
C	-4.6066258268709515	0.19061111496413863	5.244489052246339e-06
S	-3.9970137668709516	-1.4673300050358615	4.434489052246339e-06
H	-0.10391111687095123	4.527294264964139	2.2564489052246338e-05
H	0.10391122312904866	-4.527294375035861	-2.2585510947753662e-05
H	-5.677596196870951	0.36214837496413865	6.394489052246339e-06
H	5.677596363129048	-0.3621469250358613	-6.20551094775366e-06
C	-2.3887707899403052	-0.7865463988482466	4.999969494478533
C	-2.4632239299403054	0.6449148611517533	5.000037864478533
C	-1.2861865699403052	1.3952017711517533	4.999945374478533
C	-0.030991989940305335	0.7191770411517534	5.0000765444785324
C	0.030991840059694627	-0.7191567788482467	4.999923424478532
C	-1.1816717499403049	-1.4584731288482464	5.000038114478532
C	1.181671640059695	1.4584935511517534	4.999961684478532
C	2.388770660059695	0.7865666211517534	5.000030854478533
C	2.4632239200596944	-0.6448947688482467	4.999961804478533
C	1.2861864200596946	-1.3951812088482467	5.000053554478533
C	-1.3315847499403055	2.8884881011517534	5.000004204478532
N	-0.07719467994030521	3.5146958711517535	5.000010684478533
C	1.173462510059695	2.9367553011517535	5.000012204478533
O	2.1892007800596947	3.609109561151753	4.9999930844785325
O	-2.3304506099403053	3.5661738511517536	4.999962804478533
C	-1.1734625299403054	-2.936734838848247	4.999987984478532
N	0.07719459005969459	-3.514675588848247	4.999988474478533
C	1.331584520059695	-2.8884675288482464	4.9999960144785325
O	2.3304500100596943	-3.5661538388482468	5.000037604478533
O	-2.1892005599403053	-3.6090893288482464	5.000007804478533
S	3.9970133800596948	1.4673406811517533	4.999995554478533
C	4.6066257500596945	-0.1906002488482466	4.999994644478533
N	3.7502243900596945	-1.1503931988482465	5.000001404478533
N	-3.7502242199403053	1.1504141011517532	4.999998814478532
C	-4.6066259099403055	0.19062137115175343	5.000005244478532
S	-3.9970138499403056	-1.4673197488482468	5.000004434478533
H	-0.10391119994030512	4.527304521151754	5.000022564478533
H	0.10391114005969476	-4.527284118848247	4.999977414478533
H	-5.677596279940305	0.36215863115175345	5.0000063944785325
H	5.677596280059694	-0.3621366688482465	4.999993794478533
