60
n02 TL90.0
C	-2.388770706870951	-0.7865566550358614	-3.050551094775366e-05
C	-2.4632238468709513	0.6449046049641386	3.786448905224634e-05
C	-1.2861864868709514	1.3951915149641385	-5.4625510947753664e-05
C	-0.030991906870951436	0.7191667849641387	7.654448905224635e-05
C	0.030991923129048526	-0.7191670350358614	-7.657551094775365e-05
C	-1.181671666870951	-1.4584833850358612	3.811448905224634e-05
C	1.1816717231290488	1.4584832949641386	-3.831551094775366e-05
C	2.388770743129049	0.7865563649641386	3.085448905224634e-05
C	2.4632240031290484	-0.6449050250358614	-3.819551094775366e-05
C	1.2861865031290485	-1.3951914650358614	5.355448905224634e-05
C	-1.3315846668709517	2.8884778449641386	4.20448905224634e-06
N	-0.07719459687095132	3.514685614964139	1.068448905224634e-05
C	1.1734625931290488	2.936745044964139	1.220448905224634e-05
O	2.1892008631290487	3.6090993049641384	-6.91551094775366e-06
O	-2.3304505268709512	3.566163594964139	-3.719551094775366e-05
C	-1.1734624468709516	-2.9367450950358616	-1.201551094775366e-05
N	0.07719467312904849	-3.514685845035862	-1.152551094775366e-05
C	1.3315846031290488	-2.888477785035861	-3.9855109477536605e-06
O	2.3304500931290484	-3.5661640950358615	3.760448905224634e-05
O	-2.189200476870951	-3.609099585035861	7.80448905224634e-06
S	3.997013463129049	1.4673304249641386	-4.44551094775366e-06
C	4.606625833129049	-0.1906105050358614	-5.35551094775366e-06
N	3.7502244731290486	-1.1504034550358613	1.4044890522463398e-06
N	-3.7502241368709512	1.1504038449641385	-1.1855109477536602e-06
C	-4.6066258268709515	0.19061111496413863	5.244489052246339e-06
S	-3.9970137668709516	-1.4673300050358615	4.434489052246339e-06
H	-0.10391111687095123	4.527294264964139	2.2564489052246338e-05
H	0.10391122312904866	-4.527294375035861	-2.2585510947753662e-05
H	-5.677596196870951	0.36214837496413865	6.394489052246339e-06
H	5.677596363129048	-0.3621469250358613	-6.20551094775366e-06
C	-2.43930449933863	-0.5705149284558831	-7.523841041278054
C	-2.192438852994044	-0.5128455026864269	-6.113041195943007
C	-0.9100888872963278	-0.21282046267993943	-5.65053612186091
C	0.13011588000639002	0.03033931022583667	-6.594660188580759
C	-0.13011568448414373	-0.030369245599999376	-8.00931216008306
C	-1.4438061350282745	-0.33774734057353983	-8.453021262899759
C	1.443806365240916	0.3377175879011585	-6.150950939078561
C	2.4393047914960193	0.5704846254282501	-7.080131350889501
C	2.192439075232173	0.5128158816573587	-8.49093135013769
C	0.9100889124924157	0.212791555535866	-8.953435934686695
C	-0.6219671138901689	-0.14549180462117076	-4.186153058224059
N	0.7062301433143781	0.16515486099508406	-3.862083136662694
C	1.763854525574713	0.41252207325479795	-4.709667255025134
O	2.8760059541524017	0.6726638653086007	-4.28631169242089
O	-1.4187495654263305	-0.3318094931733394	-3.298789306655876
C	-1.7638541123393923	-0.41255218364526935	-9.894304928501441
N	-0.7062300709420445	-0.1651839933123705	-10.741889206191434
C	0.6219673592437052	0.1454616241550198	-10.417818970366705
O	1.4187493790565429	0.33177901660323167	-11.305183182952696
O	-2.876005204949088	-0.6726946160110119	-10.317660769720344
S	4.115092283193685	0.962472409354571	-6.783517412629433
C	4.325419483926073	1.0116669730561096	-8.5367252532922
N	3.300595167144043	0.7719628958626448	-9.2762540704686
N	-3.3005944693566622	-0.7719929705086135	-5.327717727892485
C	-4.325419125390719	-1.0116967881439176	-6.067246255694347
S	-4.1150922379393595	-0.9625024004148071	-7.82045421076298
H	0.9054586080865822	0.2117403956006612	-2.870000550671543
H	-0.9054582939085257	-0.21177031349218656	-11.733971682168459
H	-5.302800215205909	-1.2402985624269223	-5.6563083053248295
H	5.3028009800445535	1.240268534273287	-8.947662422175577
