28
84a cofacial 3.5A
C	-0.6726341448456976	-0.01871282384495293	-2.8781269269543597e-06
C	0.6726368851543023	0.018621386155047104	4.918730730456401e-07
S	1.6075124651543025	1.542041016155047	1.17187307304564e-06
C	3.1835495951543025	0.7547602161550471	2.218730730456401e-07
C	3.2205175751543025	-0.5769831438449529	-1.03812692695436e-06
S	1.6906316351543023	-1.450543063844953	5.418730730456401e-07
S	-1.6905297848456975	1.450523206155047	-6.681269269543599e-07
C	-3.2204736848456976	0.5770769061550471	-1.981269269543599e-07
C	-3.1835991348456973	-0.754669313844953	-2.481269269543599e-07
S	-1.6076129948456974	-1.542066033844953	3.4187307304564015e-07
H	-4.123670224845697	1.172880906155047	4.818730730456401e-07
H	-4.052474044845698	-1.399493003844953	-2.681269269543599e-07
H	4.123759345154302	-1.172718483844953	6.187307304564011e-08
H	4.052377585154303	1.399647006155047	-9.281269269543599e-07
C	-0.6726337020067061	-0.018712734316371136	3.4999971218730437
C	0.6726373279932938	0.0186214756836289	3.5000004918730436
S	1.607512907993294	1.542041105683629	3.500001171873044
C	3.183550037993294	0.7547603056836288	3.500000221873044
C	3.220518017993294	-0.5769830543163711	3.4999989618730436
S	1.6906320779932937	-1.4505429743163711	3.5000005418730438
S	-1.690529342006706	1.450523295683629	3.4999993318730436
C	-3.220473242006706	0.5770769956836289	3.499999801873044
C	-3.1835986920067056	-0.7546692243163712	3.4999997518730437
S	-1.607612552006706	-1.5420659443163711	3.5000003418730437
H	-4.123669782006706	1.1728809956836288	3.5000004818730437
H	-4.052473602006707	-1.399492914316371	3.499999731873044
H	4.1237597879932935	-1.172718394316371	3.5000000618730436
H	4.052378027993294	1.3996470956836289	3.499999071873044
