68
n05 PD short
C	-0.7038318971172717	-0.11122723113466448	6.246563317560184e-05
C	0.6967841128827281	-0.1491150511346644	3.993563317560183e-05
C	1.0896101928827282	-1.4890910511346644	-7.478436682439816e-05
C	-0.06162415711727176	-2.2777565211346644	2.4485633175601827e-05
C	-1.168533757117272	-1.4280079111346644	-6.958436682439817e-05
C	-1.4947582471172716	1.0065047788653356	-2.108436682439817e-05
C	-0.646564477117272	2.183307748865335	5.405633175601827e-06
C	0.7636952028827282	2.1451425288653354	-4.124366824398171e-06
C	1.547002152882728	0.9242165888653358	-5.622436682439817e-05
C	2.945262062882728	0.5047996188653356	2.5185633175601828e-05
C	3.3290222428827283	-0.8402685111346644	-3.921436682439817e-05
C	2.3748828728827283	-1.9480628911346645	4.589563317560183e-05
C	-2.913669677117272	0.6632815388653355	1.0915633175601827e-05
C	-3.3695811571172722	-0.6590833411346645	-3.914366824398172e-06
C	-2.4767328771172723	-1.8168247111346645	5.355633175601828e-06
C	-2.588065517117272	-3.2728220111346644	1.690563317560183e-05
C	-1.4767304971172717	-4.125483971134664	9.45633175601828e-07
C	-0.09853463711727173	-3.6418124911346643	-6.724366824398172e-06
C	1.2514710828827282	-4.199274261134664	5.528563317560183e-05
C	2.407309872882728	-3.4079443111346643	-3.880436682439817e-05
H	-3.651508747117272	1.4570783588653355	-1.714366824398172e-06
H	-4.445272887117272	-0.8080146411346645	-1.0944366824398172e-05
H	-3.569036127117272	-3.7387554311346642	5.425633175601829e-06
H	-1.6738319471172716	-5.193582731134664	-9.454366824398173e-06
H	1.390447582882728	-5.276477091134664	-1.6194366824398173e-05
H	3.361647202882728	-3.9262378911346643	1.4425633175601827e-05
H	4.395096812882728	-1.0470608211346644	6.395633175601828e-06
H	3.724912972882728	1.2575655388653357	-4.3643668243981724e-06
C	-1.0666081171172719	3.6181996388653355	-4.1794366824398175e-05
N	0.11800123288272824	4.360492488865336	1.2795633175601828e-05
C	1.2607167128827281	3.5552559688653353	3.6125633175601824e-05
O	2.402841312882728	3.947020908865335	-6.604366824398171e-06
O	-2.185949577117272	4.070967588865336	1.707563317560183e-05
H	0.1453647728827283	5.368739388865335	-1.734366824398172e-06
C	-3.463707325384364	-0.036516408699107654	3.500065167567075
C	-2.0630913153843644	-0.07440422869910755	3.5000426375670752
C	-1.6702652353843643	-1.4143802286991076	3.499927917567075
C	-2.8214995853843643	-2.2030456986991074	3.5000271875670754
C	-3.9284091853843646	-1.3532970886991076	3.499933117567075
C	-4.2546336753843645	1.0812156013008924	3.4999816175670753
C	-3.4064399053843646	2.2580185713008922	3.500008107567075
C	-1.9961802253843643	2.2198533513008925	3.499998577567075
C	-1.2128732753843645	0.9989274113008926	3.499946477567075
C	0.18538663461563532	0.5795104413008925	3.500027887567075
C	0.5691468146156357	-0.7655576886991076	3.4999634875670753
C	-0.3849925553843644	-1.8733520686991076	3.5000485975670754
C	-5.673545105384365	0.7379923613008923	3.5000136175670753
C	-6.129456585384365	-0.5843725186991077	3.4999987875670753
C	-5.236608305384365	-1.7421138886991077	3.5000080575670753
C	-5.347940945384365	-3.1981111886991074	3.5000196075670753
C	-4.236605925384365	-4.050773148699108	3.500003647567075
C	-2.8584100653843643	-3.5671016686991073	3.499995977567075
C	-1.5084043453843643	-4.1245634386991075	3.500057987567075
C	-0.3525655553843646	-3.3332334886991073	3.499963897567075
H	-6.411384175384365	1.5317891813008924	3.5000009875670752
H	-7.205148315384365	-0.7333038186991077	3.4999917575670754
H	-6.328911555384365	-3.664044608699107	3.5000081275670754
H	-4.4337073753843645	-5.1188719086991075	3.499993247567075
H	-1.3694278453843645	-5.2017662686991075	3.4999865075670753
H	0.6017717746156354	-3.851527068699107	3.5000171275670753
H	1.6352213846156354	-0.9723499986991075	3.5000090975670752
H	0.9650375446156353	1.3322763613008926	3.4999983375670753
C	-3.8264835453843644	3.6929104613008925	3.499960907567075
N	-2.6418741953843643	4.435203311300892	3.5000154975670754
C	-1.4991587153843644	3.6299667913008924	3.5000388275670753
O	-0.35703411538436447	4.021731731300892	3.499996097567075
O	-4.945825005384365	4.145678411300892	3.500019777567075
H	-2.6145106553843642	5.443450211300892	3.5000009675670753
