68
n05 TL90.0
C	-0.7038318971172717	-0.11122723113466448	6.246563317560184e-05
C	0.6967841128827281	-0.1491150511346644	3.993563317560183e-05
C	1.0896101928827282	-1.4890910511346644	-7.478436682439816e-05
C	-0.06162415711727176	-2.2777565211346644	2.4485633175601827e-05
C	-1.168533757117272	-1.4280079111346644	-6.958436682439817e-05
C	-1.4947582471172716	1.0065047788653356	-2.108436682439817e-05
C	-0.646564477117272	2.183307748865335	5.405633175601827e-06
C	0.7636952028827282	2.1451425288653354	-4.124366824398171e-06
C	1.547002152882728	0.9242165888653358	-5.622436682439817e-05
C	2.945262062882728	0.5047996188653356	2.5185633175601828e-05
C	3.3290222428827283	-0.8402685111346644	-3.921436682439817e-05
C	2.3748828728827283	-1.9480628911346645	4.589563317560183e-05
C	-2.913669677117272	0.6632815388653355	1.0915633175601827e-05
C	-3.3695811571172722	-0.6590833411346645	-3.914366824398172e-06
C	-2.4767328771172723	-1.8168247111346645	5.355633175601828e-06
C	-2.588065517117272	-3.2728220111346644	1.690563317560183e-05
C	-1.4767304971172717	-4.125483971134664	9.45633175601828e-07
C	-0.09853463711727173	-3.6418124911346643	-6.724366824398172e-06
C	1.2514710828827282	-4.199274261134664	5.528563317560183e-05
C	2.407309872882728	-3.4079443111346643	-3.880436682439817e-05
H	-3.651508747117272	1.4570783588653355	-1.714366824398172e-06
H	-4.445272887117272	-0.8080146411346645	-1.0944366824398172e-05
H	-3.569036127117272	-3.7387554311346642	5.425633175601829e-06
H	-1.6738319471172716	-5.193582731134664	-9.454366824398173e-06
H	1.390447582882728	-5.276477091134664	-1.6194366824398173e-05
H	3.361647202882728	-3.9262378911346643	1.4425633175601827e-05
H	4.395096812882728	-1.0470608211346644	6.395633175601828e-06
H	3.724912972882728	1.2575655388653357	-4.3643668243981724e-06
C	-1.0666081171172719	3.6181996388653355	-4.1794366824398175e-05
N	0.11800123288272824	4.360492488865336	1.2795633175601828e-05
C	1.2607167128827281	3.5552559688653353	3.6125633175601824e-05
O	2.402841312882728	3.947020908865335	-6.604366824398171e-06
O	-2.185949577117272	4.070967588865336	1.707563317560183e-05
H	0.1453647728827283	5.368739388865335	-1.734366824398172e-06
C	-0.0034545738141754383	-0.13018670407514624	7.99234407994772
C	-0.0034763553952592103	-0.13015875201132923	6.591215715512641
C	-0.039550450933099314	-1.4585242689932687	6.162273136850559
C	-0.06162805430844722	-2.277756420890984	7.291744262099459
C	-0.03954648726695878	-1.4585700104897203	8.42124308946899
C	0.026117988845610805	0.9653341033297165	8.813227121777855
C	0.058598727413980076	2.1642187203873853	7.997188777719261
C	0.0585894990026029	2.1642299902703837	6.586412768237246
C	0.026084305270666068	0.9653883803337889	5.77035386211424
C	0.015844131631134694	0.5841000174900111	4.3612563848371995
C	-0.0203240458561689	-0.7496004998543774	3.9412385909102654
C	-0.05090408637613302	-1.882395965241561	4.86505114100218
C	0.015826580671000012	0.5839790094035476	10.222331170079148
C	-0.02029277440844689	-0.7497497953872787	10.64229190768805
C	-0.05094723041974969	-1.8824916120056454	9.718441588531778
C	-0.09040271998323172	-3.3404346524882365	9.79033351799361
C	-0.11266984382317526	-4.162409592078503	8.656332054658733
C	-0.09858472883415216	-3.6418111403884947	7.291729258685095
C	-0.11261381644384044	-4.162347994351331	5.92713274643072
C	-0.09045558766503393	-3.3403289011548107	4.7931309693570014
H	0.03674629036187125	1.3572359545585646	10.981380540895088
H	-0.025116168068088647	-0.9276698889177282	11.713559570483497
H	-0.10373627861646553	-3.832562357763636	10.758336528114448
H	-0.14171721696646242	-5.235057636776388	8.824458094084745
H	-0.1417224181310849	-5.235000699800169	5.75905754771672
H	-0.10372366669651135	-3.832429052448822	3.8251178617446078
H	-0.02509164362530196	-0.9274047247165688	2.869958525759813
H	0.036748228733016274	1.3574054883895215	3.6022611674268923
C	0.09705855757450174	3.5866987554669487	8.455907415867015
N	0.118059999734858	4.3604908927706605	7.291818648666356
C	0.09713801406696074	3.586754460215441	6.1277315705789555
O	0.10852909316506906	4.009128765963731	4.9966265528529945
O	0.10854536480303208	4.0088547749013195	9.587091075845727
H	0.1453391333907398	5.368740077680931	7.291748742854393
