68
n05 PD long+short
C	-0.7038318971172717	-0.11122723113466448	6.246563317560184e-05
C	0.6967841128827281	-0.1491150511346644	3.993563317560183e-05
C	1.0896101928827282	-1.4890910511346644	-7.478436682439816e-05
C	-0.06162415711727176	-2.2777565211346644	2.4485633175601827e-05
C	-1.168533757117272	-1.4280079111346644	-6.958436682439817e-05
C	-1.4947582471172716	1.0065047788653356	-2.108436682439817e-05
C	-0.646564477117272	2.183307748865335	5.405633175601827e-06
C	0.7636952028827282	2.1451425288653354	-4.124366824398171e-06
C	1.547002152882728	0.9242165888653358	-5.622436682439817e-05
C	2.945262062882728	0.5047996188653356	2.5185633175601828e-05
C	3.3290222428827283	-0.8402685111346644	-3.921436682439817e-05
C	2.3748828728827283	-1.9480628911346645	4.589563317560183e-05
C	-2.913669677117272	0.6632815388653355	1.0915633175601827e-05
C	-3.3695811571172722	-0.6590833411346645	-3.914366824398172e-06
C	-2.4767328771172723	-1.8168247111346645	5.355633175601828e-06
C	-2.588065517117272	-3.2728220111346644	1.690563317560183e-05
C	-1.4767304971172717	-4.125483971134664	9.45633175601828e-07
C	-0.09853463711727173	-3.6418124911346643	-6.724366824398172e-06
C	1.2514710828827282	-4.199274261134664	5.528563317560183e-05
C	2.407309872882728	-3.4079443111346643	-3.880436682439817e-05
H	-3.651508747117272	1.4570783588653355	-1.714366824398172e-06
H	-4.445272887117272	-0.8080146411346645	-1.0944366824398172e-05
H	-3.569036127117272	-3.7387554311346642	5.425633175601829e-06
H	-1.6738319471172716	-5.193582731134664	-9.454366824398173e-06
H	1.390447582882728	-5.276477091134664	-1.6194366824398173e-05
H	3.361647202882728	-3.9262378911346643	1.4425633175601827e-05
H	4.395096812882728	-1.0470608211346644	6.395633175601828e-06
H	3.724912972882728	1.2575655388653357	-4.3643668243981724e-06
C	-1.0666081171172719	3.6181996388653355	-4.1794366824398175e-05
N	0.11800123288272824	4.360492488865336	1.2795633175601828e-05
C	1.2607167128827281	3.5552559688653353	3.6125633175601824e-05
O	2.402841312882728	3.947020908865335	-6.604366824398171e-06
O	-2.185949577117272	4.070967588865336	1.707563317560183e-05
H	0.1453647728827283	5.368739388865335	-1.734366824398172e-06
C	-3.376157210096217	3.197652295263326	3.500065169897741
C	-1.9755412000962171	3.159764475263326	3.500042639897741
C	-1.582715120096217	1.8197884752633255	3.499927919897741
C	-2.733949470096217	1.0311230052633256	3.5000271898977413
C	-3.8408590700962173	1.8808716152633256	3.499933119897741
C	-4.167083560096217	4.315384305263326	3.499981619897741
C	-3.3188897900962173	5.492187275263325	3.5000081098977414
C	-1.908630110096217	5.454022055263326	3.499998579897741
C	-1.1253231600962172	4.233096115263326	3.499946479897741
C	0.2729367499037826	3.813679145263326	3.500027889897741
C	0.6566969299037829	2.468611015263326	3.499963489897741
C	-0.2974424400962171	1.3608166352633255	3.5000485998977413
C	-5.585994990096218	3.9721610652633257	3.500013619897741
C	-6.041906470096218	2.649796185263326	3.499998789897741
C	-5.149058190096218	1.4920548152633255	3.500008059897741
C	-5.260390830096218	0.03605751526332567	3.500019609897741
C	-4.149055810096217	-0.8166044447366742	3.500003649897741
C	-2.770859950096217	-0.3329329647366742	3.4999959798977414
C	-1.420854230096217	-0.890394734736674	3.500057989897741
C	-0.26501544009621736	-0.09906478473667424	3.4999638998977414
H	-6.3238340600962175	4.765957885263325	3.500000989897741
H	-7.117598200096218	2.5008648852633257	3.4999917598977413
H	-6.241361440096218	-0.42987590473667414	3.5000081298977412
H	-4.346157260096217	-1.884703204736674	3.499993249897741
H	-1.2818777300962172	-1.9675975647366741	3.499986509897741
H	0.6893218899037826	-0.6173583647366742	3.500017129897741
H	1.7227714999037826	2.261818705263326	3.500009099897741
H	1.0525876599037827	4.566445065263325	3.4999983398977412
C	-3.738933430096217	6.927079165263325	3.4999609098977413
N	-2.554324080096217	7.669372015263325	3.5000154998977413
C	-1.4116086000962171	6.864135495263326	3.500038829897741
O	-0.2694840000962172	7.255900435263325	3.499996099897741
O	-4.858274890096218	7.379847115263325	3.500019779897741
H	-2.526960540096217	8.677618915263325	3.5000009698977412
