36
40a TS90.0
C	-4.169168257498039	-0.5657252813546128	-2.2134296819899992e-06
C	-3.638999267498039	0.6909685986453871	-2.134296819899993e-07
C	-2.2169864974980387	0.6524167486453873	1.9865703180100008e-06
C	-1.6875984174980383	-0.6327588813546128	3.3665703180100007e-06
S	-2.9546199074980386	-1.8254017413546126	3.265703180100007e-07
S	-0.9663706874980384	1.8891830186453873	-1.2234296819899994e-06
C	0.26775520250196116	0.6413271786453871	-2.3634296819899995e-06
C	-0.2677504274980387	-0.6413960413546128	-1.1334296819899994e-06
C	1.6875931025019613	0.6327210586453871	1.1165703180100006e-06
C	2.2170250425019615	-0.6524348113546128	-6.834296819899993e-07
S	0.9664195125019615	-1.8892282413546129	9.665703180100006e-07
S	2.9545432525019613	1.8254297786453872	5.965703180100007e-07
C	4.1691498425019615	0.5658158586453872	5.657031801000069e-08
C	3.6390491925019615	-0.6909095213546128	-1.7434296819899993e-06
H	-5.211942117498039	-0.8465619713546128	-1.0034296819899994e-06
H	-4.237087937498039	1.5931471486453874	1.0165703180100005e-06
H	5.211905872501961	0.8467277386453873	5.657031801000069e-08
H	4.237181012501962	-1.5930631013546128	4.765703180100007e-07
C	-0.035032327826806695	0.1913212565014814	3.9462978863821068
C	-0.24049323633478056	1.3133062550245318	4.694157595254957
C	-0.1875273321726381	1.0240539205010246	6.085967303209073
C	0.05735416144307391	-0.31322068495179306	6.375203924143278
S	0.2275602485548526	-1.2426777775803335	4.914081120094064
S	-0.36607731991033476	1.9991106998364965	7.538900505318784
C	-0.10494029811580716	0.5730806959125089	8.528070254931324
C	0.10495614997554395	-0.5731441566435528	7.77027265177343
C	-0.0573519860824368	0.31318760745609964	9.923134648685382
C	0.1875305574992598	-1.0240750773882943	10.212417971506767
S	0.36608722545230354	-1.9991596759173227	8.759489989051527
S	-0.22756855510351556	1.2427217044473529	11.384199142645413
C	0.035017859703227565	-0.19122658287886657	12.352050928800002
C	0.24048636994036662	-1.3132542038217707	11.604252768189838
H	-0.0191080117641291	0.10435385784894641	2.869994185152539
H	-0.41974707566255276	2.292182029643943	4.2683566180208885
H	0.01907845280866422	-0.1041834926291217	13.428350635282412
H	0.41973379153583074	-2.2921140853082855	12.030100687376772
