36
40a cofacial 5.0A
C	-4.169168257498039	-0.5657252813546128	-2.2134296819899992e-06
C	-3.638999267498039	0.6909685986453871	-2.134296819899993e-07
C	-2.2169864974980387	0.6524167486453873	1.9865703180100008e-06
C	-1.6875984174980383	-0.6327588813546128	3.3665703180100007e-06
S	-2.9546199074980386	-1.8254017413546126	3.265703180100007e-07
S	-0.9663706874980384	1.8891830186453873	-1.2234296819899994e-06
C	0.26775520250196116	0.6413271786453871	-2.3634296819899995e-06
C	-0.2677504274980387	-0.6413960413546128	-1.1334296819899994e-06
C	1.6875931025019613	0.6327210586453871	1.1165703180100006e-06
C	2.2170250425019615	-0.6524348113546128	-6.834296819899993e-07
S	0.9664195125019615	-1.8892282413546129	9.665703180100006e-07
S	2.9545432525019613	1.8254297786453872	5.965703180100007e-07
C	4.1691498425019615	0.5658158586453872	5.657031801000069e-08
C	3.6390491925019615	-0.6909095213546128	-1.7434296819899993e-06
H	-5.211942117498039	-0.8465619713546128	-1.0034296819899994e-06
H	-4.237087937498039	1.5931471486453874	1.0165703180100005e-06
H	5.211905872501961	0.8467277386453873	5.657031801000069e-08
H	4.237181012501962	-1.5930631013546128	4.765703180100007e-07
C	-4.169168240253601	-0.5657242432522434	4.99999778657021
C	-3.638999250253601	0.6909696367477565	4.999999786570211
C	-2.216986480253601	0.6524177867477567	5.0000019865702106
C	-1.6875984002536004	-0.6327578432522434	5.00000336657021
S	-2.9546198902536007	-1.8254007032522432	5.000000326570211
S	-0.9663706702536005	1.8891840567477567	4.9999987765702105
C	0.2677552197463991	0.6413282167477565	4.99999763657021
C	-0.26775041025360075	-0.6413950032522434	4.999998866570211
C	1.6875931197463991	0.6327220967477565	5.0000011165702105
C	2.2170250597463994	-0.6524337732522434	4.999999316570211
S	0.9664195297463994	-1.8892272032522435	5.0000009665702105
S	2.954543269746399	1.8254308167477566	5.00000059657021
C	4.169149859746399	0.5658168967477566	5.000000056570211
C	3.6390492097463993	-0.6909084832522434	4.99999825657021
H	-5.2119421002536015	-0.8465609332522434	4.999998996570211
H	-4.237087920253601	1.5931481867477568	5.00000101657021
H	5.211905889746399	0.8467287767477567	5.000000056570211
H	4.2371810297464	-1.5930620632522434	5.000000476570211
