36
40a PD long
C	-4.169168257498039	-0.5657252813546128	-2.2134296819899992e-06
C	-3.638999267498039	0.6909685986453871	-2.134296819899993e-07
C	-2.2169864974980387	0.6524167486453873	1.9865703180100008e-06
C	-1.6875984174980383	-0.6327588813546128	3.3665703180100007e-06
S	-2.9546199074980386	-1.8254017413546126	3.265703180100007e-07
S	-0.9663706874980384	1.8891830186453873	-1.2234296819899994e-06
C	0.26775520250196116	0.6413271786453871	-2.3634296819899995e-06
C	-0.2677504274980387	-0.6413960413546128	-1.1334296819899994e-06
C	1.6875931025019613	0.6327210586453871	1.1165703180100006e-06
C	2.2170250425019615	-0.6524348113546128	-6.834296819899993e-07
S	0.9664195125019615	-1.8892282413546129	9.665703180100006e-07
S	2.9545432525019613	1.8254297786453872	5.965703180100007e-07
C	4.1691498425019615	0.5658158586453872	5.657031801000069e-08
C	3.6390491925019615	-0.6909095213546128	-1.7434296819899993e-06
H	-5.211942117498039	-0.8465619713546128	-1.0034296819899994e-06
H	-4.237087937498039	1.5931471486453874	1.0165703180100005e-06
H	5.211905872501961	0.8467277386453873	5.657031801000069e-08
H	4.237181012501962	-1.5930631013546128	4.765703180100007e-07
C	-1.0317506330564818	0.008801445160796131	3.4999976564662814
C	-0.5015816430564819	1.2654953251607959	3.4999996564662816
C	0.9204311269435184	1.2269434751607962	3.5000018564662816
C	1.4498192069435187	-0.058232154839203895	3.5000032364662816
S	0.18279771694351843	-1.2508750148392036	3.5000001964662815
S	2.171046936943519	2.463709745160796	3.4999986464662816
C	3.4051728269435184	1.215853905160796	3.4999975064662814
C	2.8696671969435186	-0.06686931483920393	3.4999987364662815
C	4.8250107269435185	1.207247785160796	3.5000009864662815
C	5.354442666943519	-0.0779080848392039	3.4999991864662814
S	4.103837136943518	-1.3147015148392038	3.5000008364662816
S	6.091960876943519	2.399956505160796	3.5000004664662816
C	7.306567466943519	1.140342585160796	3.4999999264662813
C	6.776466816943518	-0.11638279483920393	3.4999981264662816
H	-2.074524493056482	-0.2720352448392039	3.4999988664662816
H	-1.099670313056482	2.167673875160796	3.5000008864662817
H	8.349323496943517	1.4212544651607961	3.4999999264662813
H	7.374598636943519	-1.018536374839204	3.5000003464662814
