36
40a PD long+short
C	-4.169168257498039	-0.5657252813546128	-2.2134296819899992e-06
C	-3.638999267498039	0.6909685986453871	-2.134296819899993e-07
C	-2.2169864974980387	0.6524167486453873	1.9865703180100008e-06
C	-1.6875984174980383	-0.6327588813546128	3.3665703180100007e-06
S	-2.9546199074980386	-1.8254017413546126	3.265703180100007e-07
S	-0.9663706874980384	1.8891830186453873	-1.2234296819899994e-06
C	0.26775520250196116	0.6413271786453871	-2.3634296819899995e-06
C	-0.2677504274980387	-0.6413960413546128	-1.1334296819899994e-06
C	1.6875931025019613	0.6327210586453871	1.1165703180100006e-06
C	2.2170250425019615	-0.6524348113546128	-6.834296819899993e-07
S	0.9664195125019615	-1.8892282413546129	9.665703180100006e-07
S	2.9545432525019613	1.8254297786453872	5.965703180100007e-07
C	4.1691498425019615	0.5658158586453872	5.657031801000069e-08
C	3.6390491925019615	-0.6909095213546128	-1.7434296819899993e-06
H	-5.211942117498039	-0.8465619713546128	-1.0034296819899994e-06
H	-4.237087937498039	1.5931471486453874	1.0165703180100005e-06
H	5.211905872501961	0.8467277386453873	5.657031801000069e-08
H	4.237181012501962	-1.5930631013546128	4.765703180100007e-07
C	-0.7228146663772568	-1.678260834383818	3.499998005669466
C	-0.19264567637725682	-0.42156695438381814	3.5000000056694662
C	1.2293670936227434	-0.46011880438381786	3.500002205669466
C	1.7587551736227438	-1.745294434383818	3.5000035856694662
S	0.4917336836227435	-2.937937294383818	3.500000545669466
S	2.479982903622744	0.7766474656161821	3.499998995669466
C	3.7141087936227435	-0.4712083743838181	3.499997855669466
C	3.1786031636227436	-1.753931594383818	3.499999085669466
C	5.133946693622743	-0.4798144943838181	3.500001335669466
C	5.663378633622743	-1.764970364383818	3.499999535669466
S	4.412773103622744	-3.0017637943838182	3.500001185669466
S	6.400896843622744	0.7128942256161821	3.500000815669466
C	7.615503433622743	-0.546719694383818	3.500000275669466
C	7.085402783622744	-1.803445074383818	3.499998475669466
H	-1.7655885263772573	-1.9590975243838178	3.499999215669466
H	-0.7907343463772569	0.4806115956161822	3.500001235669466
H	8.658259463622743	-0.2658078143838179	3.500000275669466
H	7.6835346036227445	-2.705598654383818	3.500000695669466
