36
40a TL45.0
C	-4.169168257498039	-0.5657252813546128	-2.2134296819899992e-06
C	-3.638999267498039	0.6909685986453871	-2.134296819899993e-07
C	-2.2169864974980387	0.6524167486453873	1.9865703180100008e-06
C	-1.6875984174980383	-0.6327588813546128	3.3665703180100007e-06
S	-2.9546199074980386	-1.8254017413546126	3.265703180100007e-07
S	-0.9663706874980384	1.8891830186453873	-1.2234296819899994e-06
C	0.26775520250196116	0.6413271786453871	-2.3634296819899995e-06
C	-0.2677504274980387	-0.6413960413546128	-1.1334296819899994e-06
C	1.6875931025019613	0.6327210586453871	1.1165703180100006e-06
C	2.2170250425019615	-0.6524348113546128	-6.834296819899993e-07
S	0.9664195125019615	-1.8892282413546129	9.665703180100006e-07
S	2.9545432525019613	1.8254297786453872	5.965703180100007e-07
C	4.1691498425019615	0.5658158586453872	5.657031801000069e-08
C	3.6390491925019615	-0.6909095213546128	-1.7434296819899993e-06
H	-5.211942117498039	-0.8465619713546128	-1.0034296819899994e-06
H	-4.237087937498039	1.5931471486453874	1.0165703180100005e-06
H	5.211905872501961	0.8467277386453873	5.657031801000069e-08
H	4.237181012501962	-1.5930631013546128	4.765703180100007e-07
C	-4.158907159282331	-0.6217608275884876	-4.058007641267399
C	-3.568560422613164	0.3063097744607441	-3.251450542168323
C	-2.1620613591996625	0.3524763692967341	-3.4593822456782233
C	-1.7043975903345316	-0.5410216134264769	-4.420700803041808
S	-3.021270763694477	-1.4614305580023612	-5.088857122827571
S	-0.8591489906952464	1.3036575612177461	-2.758451142804404
C	0.2984918581001724	0.47347713025208066	-3.7835750509411623
C	-0.2984911764060526	-0.4735255400949125	-4.607554624570134
C	1.7043909051193804	0.5409893731162639	-3.970400355019344
C	2.162098737592035	-0.3524899614811636	-4.931713003449283
S	0.8591949432446653	-1.303688998002772	-5.632665409648206
S	3.0211963807726505	1.461444287577597	-3.3021916577675974
C	4.158893316104676	0.6218245385448619	-4.333007235987005
C	3.5686126607946345	-0.3062652293442574	-5.139594807535238
H	-5.2063453293129625	-0.8771262938147605	-4.120524264439465
H	-4.114147084110326	0.921781309190819	-2.547770090544596
H	5.206317881646444	0.8772421197736385	-4.270435188510732
H	4.11424379746691	-0.9217190306943017	-5.843260947907048
