40
84g TL45.0
C	-0.672229383251195	0.01881676571809962	3.1705574688311613e-06
C	0.672216116748805	-0.019271854281900383	3.990557468831161e-06
S	1.6678975667488052	1.4673412157180996	-2.149442531168839e-06
C	3.218372176748805	0.6246066357180996	1.750557468831161e-06
C	3.1778124567488053	-0.8059119642819004	3.6605574688311613e-06
S	1.582242686748805	-1.5597140242819003	1.470557468831161e-06
S	-1.581992783251195	1.5594175657180995	1.260557468831161e-06
C	-3.1776726132511945	0.8059067357180996	7.405574688311611e-07
C	-3.218511973251195	-0.6246036942819004	2.330557468831161e-06
S	-1.6681640832511948	-1.4676229442819004	-1.849442531168839e-06
C	4.486360826748805	1.1228413957180996	1.0605574688311612e-06
C	4.415451856748805	-1.3752798142819005	-1.0194425311688388e-06
C	-4.415183623251195	1.3755409257180997	-2.9944253116883893e-07
C	-4.486613083251195	-1.1225656842819003	-1.8994425311688389e-06
S	5.657485276748805	-0.1604821342819004	-2.829442531168839e-06
S	-5.657470463251196	0.16100908571809963	-9.99442531168839e-07
H	-4.679246703251195	2.4218759357180994	1.390557468831161e-06
H	-4.8104279132511945	-2.1519919942819	1.00557468831161e-07
H	4.809918646748805	2.1523476057180995	-9.694425311688389e-07
H	4.679780346748805	-2.4215486342819004	8.90557468831161e-07
C	-0.6722270957783704	0.01889256955160545	-4.1657052785529025
C	0.6722177401210125	-0.01921944375113124	-4.1656495118944825
S	1.6553135452087513	1.0240575238735494	-3.0949040815286235
C	3.212423917614823	0.4150712390056759	-3.659453531608852
C	3.1837586202764614	-0.5964599336761439	-4.671388086438132
S	1.5948278791003783	-1.1163986372071355	-5.236209545767563
S	-1.5945753558511122	1.1161849135600974	-3.0950309733297954
C	-3.183618584147283	0.5964519434164189	-3.65964761242937
C	-3.212563516987872	-0.41507090082816844	-4.671582229932258
S	-1.6555773074973696	-1.02425178100493	-5.2363411471694725
C	4.475974136909561	0.7569598933199578	-3.2818478060524936
C	4.4258365792823575	-1.009477158519134	-5.048999194329075
C	-4.425570281439399	1.0096605382472865	-3.2818497179932136
C	-4.476228337237116	-0.7567622014036944	-5.049000891184365
S	5.657484434643557	-0.16051657150280768	-4.165432614036108
S	-5.65747365529206	0.16089187074779676	-4.165235256573642
H	-4.698264173508226	1.7519705570947817	-2.5475744695198443
H	-4.791414255522352	-1.4822304612523356	-5.783118192927772
H	4.790902442596027	1.4824868263032966	-2.5476792074941796
H	4.698795196604117	-1.7517451079581656	-5.783219787065951
