40
84g TL90.0
C	-0.672229383251195	0.01881676571809962	3.1705574688311613e-06
C	0.672216116748805	-0.019271854281900383	3.990557468831161e-06
S	1.6678975667488052	1.4673412157180996	-2.149442531168839e-06
C	3.218372176748805	0.6246066357180996	1.750557468831161e-06
C	3.1778124567488053	-0.8059119642819004	3.6605574688311613e-06
S	1.582242686748805	-1.5597140242819003	1.470557468831161e-06
S	-1.581992783251195	1.5594175657180995	1.260557468831161e-06
C	-3.1776726132511945	0.8059067357180996	7.405574688311611e-07
C	-3.218511973251195	-0.6246036942819004	2.330557468831161e-06
S	-1.6681640832511948	-1.4676229442819004	-1.849442531168839e-06
C	4.486360826748805	1.1228413957180996	1.0605574688311612e-06
C	4.415451856748805	-1.3752798142819005	-1.0194425311688388e-06
C	-4.415183623251195	1.3755409257180997	-2.9944253116883893e-07
C	-4.486613083251195	-1.1225656842819003	-1.8994425311688389e-06
S	5.657485276748805	-0.1604821342819004	-2.829442531168839e-06
S	-5.657470463251196	0.16100908571809963	-9.99442531168839e-07
H	-4.679246703251195	2.4218759357180994	1.390557468831161e-06
H	-4.8104279132511945	-2.1519919942819	1.00557468831161e-07
H	4.809918646748805	2.1523476057180995	-9.694425311688389e-07
H	4.679780346748805	-2.4215486342819004	8.90557468831161e-07
C	-0.6722217395160994	0.019080110084170505	-5.158042079746499
C	0.6722215242583965	-0.01908728228988839	-5.15796400816044
S	1.624932716671644	-0.04612707127491848	-3.643695140531973
C	3.1980633544293453	-0.09078960994737019	-4.442092499486158
C	3.1981137444585546	-0.09079295120836581	-5.873185981158745
S	1.625210914155849	-0.04613859031040111	-6.671961989236996
S	-1.6249525452556162	0.046128509102943235	-3.6438780645720197
C	-3.1979736552322886	0.09078455709695629	-4.442366083105611
C	-3.198202902688301	0.09078947442127436	-5.8734593334173955
S	-1.62519057877077	0.046138377742767384	-6.672144843668121
C	4.450898249343007	-0.12635487813263363	-3.9080766472990343
C	4.450907118815174	-0.12635304908465325	-6.407204027366053
C	-4.450646135550317	0.12634694529122728	-3.908078160830494
C	-4.451157764710425	0.12636307026103205	-6.407205716730699
S	5.6574819864033925	-0.1606039493851861	-5.157650353262123
S	-5.6574816885534185	0.160607757040701	-5.157373293294166
H	-4.744176535227731	0.1346781084006198	-2.8696578415184613
H	-4.745511614386179	0.1347172996605388	-7.445406366838542
H	4.744993030417608	-0.1347017229810443	-2.869803422544781
H	4.744700735094925	-0.13469528593843597	-7.445550651789256
