40
84g TS90.0
C	-0.672229383251195	0.01881676571809962	3.1705574688311613e-06
C	0.672216116748805	-0.019271854281900383	3.990557468831161e-06
S	1.6678975667488052	1.4673412157180996	-2.149442531168839e-06
C	3.218372176748805	0.6246066357180996	1.750557468831161e-06
C	3.1778124567488053	-0.8059119642819004	3.6605574688311613e-06
S	1.582242686748805	-1.5597140242819003	1.470557468831161e-06
S	-1.581992783251195	1.5594175657180995	1.260557468831161e-06
C	-3.1776726132511945	0.8059067357180996	7.405574688311611e-07
C	-3.218511973251195	-0.6246036942819004	2.330557468831161e-06
S	-1.6681640832511948	-1.4676229442819004	-1.849442531168839e-06
C	4.486360826748805	1.1228413957180996	1.0605574688311612e-06
C	4.415451856748805	-1.3752798142819005	-1.0194425311688388e-06
C	-4.415183623251195	1.3755409257180997	-2.9944253116883893e-07
C	-4.486613083251195	-1.1225656842819003	-1.8994425311688389e-06
S	5.657485276748805	-0.1604821342819004	-2.829442531168839e-06
S	-5.657470463251196	0.16100908571809963	-9.99442531168839e-07
H	-4.679246703251195	2.4218759357180994	1.390557468831161e-06
H	-4.8104279132511945	-2.1519919942819	1.00557468831161e-07
H	4.809918646748805	2.1523476057180995	-9.694425311688389e-07
H	4.679780346748805	-2.4215486342819004	8.90557468831161e-07
C	-1.1036155162309309e-05	-0.00026643704155679914	8.567268328474167
C	-9.641577070442673e-06	-0.00018841548208272874	9.912253250083
S	0.042966877365001904	1.5134704405561887	10.865348133168183
C	0.020306869082319212	0.7153946640413231	12.439112622398532
C	-0.020305155873149835	-0.7151224511037302	12.439163042396828
S	-0.04296981874770584	-1.5135767991301479	10.865626451218414
S	0.04295828077806144	1.5132877881231446	7.614153689916863
C	0.020300120850609872	0.7151213610590293	6.040498818830832
C	-0.020311577668156854	-0.7153955318903203	6.040269479602349
S	-0.04297168606912137	-1.5137595729433229	7.61391537794043
C	0.035461316577254966	1.2491954053622498	13.692452242728116
C	-0.03545430000476922	-1.2489256159517939	13.692460978921961
C	0.03546264094728405	1.2491941309736356	4.787321662675599
C	-0.03545346043059583	-1.248927052465629	4.786809704170807
S	6.071850287853339e-06	0.00012476437108656173	14.899521925675156
S	1.2114713450030506e-05	0.0004021169562000186	3.5799998542386424
H	0.06492818787017991	2.287196327548341	4.493673088995658
H	-0.06491646179860688	-2.2867095452853348	4.492337292900326
H	0.06492640738293758	2.2870504427587544	13.986665480177336
H	-0.06492135423952605	-2.2868540451662254	13.986372977446534
