40
84g PD short
C	-0.672229383251195	0.01881676571809962	3.1705574688311613e-06
C	0.672216116748805	-0.019271854281900383	3.990557468831161e-06
S	1.6678975667488052	1.4673412157180996	-2.149442531168839e-06
C	3.218372176748805	0.6246066357180996	1.750557468831161e-06
C	3.1778124567488053	-0.8059119642819004	3.6605574688311613e-06
S	1.582242686748805	-1.5597140242819003	1.470557468831161e-06
S	-1.581992783251195	1.5594175657180995	1.260557468831161e-06
C	-3.1776726132511945	0.8059067357180996	7.405574688311611e-07
C	-3.218511973251195	-0.6246036942819004	2.330557468831161e-06
S	-1.6681640832511948	-1.4676229442819004	-1.849442531168839e-06
C	4.486360826748805	1.1228413957180996	1.0605574688311612e-06
C	4.415451856748805	-1.3752798142819005	-1.0194425311688388e-06
C	-4.415183623251195	1.3755409257180997	-2.9944253116883893e-07
C	-4.486613083251195	-1.1225656842819003	-1.8994425311688389e-06
S	5.657485276748805	-0.1604821342819004	-2.829442531168839e-06
S	-5.657470463251196	0.16100908571809963	-9.99442531168839e-07
H	-4.679246703251195	2.4218759357180994	1.390557468831161e-06
H	-4.8104279132511945	-2.1519919942819	1.00557468831161e-07
H	4.809918646748805	2.1523476057180995	-9.694425311688389e-07
H	4.679780346748805	-2.4215486342819004	8.90557468831161e-07
C	-0.720296922129016	-1.6743887860902171	3.5000031729074084
C	0.624148577870984	-1.712477406090217	3.5000039929074087
S	1.6198300278709843	-0.22586433609021708	3.4999978529074087
C	3.170304637870984	-1.0685989160902172	3.5000017529074086
C	3.129744917870984	-2.499117516090217	3.5000036629074085
S	1.5341751478709842	-3.2529195760902168	3.5000014729074085
S	-1.630060322129016	-0.13378798609021716	3.5000012629074084
C	-3.2257401521290157	-0.8872988160902171	3.5000007429074085
C	-3.266579512129016	-2.317809246090217	3.5000023329074086
S	-1.7162316221290157	-3.1608284960902173	3.4999981529074087
C	4.438293287870985	-0.5703641560902171	3.5000010629074083
C	4.367384317870985	-3.068485366090217	3.4999989829074085
C	-4.463251162129016	-0.31766462609021695	3.4999997029074086
C	-4.534680622129015	-2.815771236090217	3.4999981029074085
S	5.609417737870984	-1.853687686090217	3.4999971729074084
S	-5.705538002129016	-1.532196466090217	3.4999990029074084
H	-4.727314242129015	0.7286703839097828	3.5000013929074085
H	-4.858495452129015	-3.845197546090217	3.5000001029074084
H	4.761851107870985	0.4591420539097828	3.4999990329074087
H	4.631712807870985	-4.114754186090217	3.5000008929074085
