80
133b_H_capped TL45.0
C	-2.4555399446062567	1.4293383479612858	5.073098331258294e-05
C	-2.4765196346062566	2.8255565679612857	-4.055901668741706e-05
C	-1.2979349446062565	3.544230857961286	4.262098331258294e-05
C	-0.0555069446062566	2.8620595979612857	-8.267901668741706e-05
C	-0.027704234606256595	1.4332126279612858	9.009098331258294e-05
C	-1.2614692146062567	0.7107596379612859	-4.305901668741706e-05
C	1.1594418953937433	3.592023177961286	5.4480983312582936e-05
C	2.365071235393743	2.9197101479612857	-4.2189016687417065e-05
C	2.3984260053937434	1.5237268779612858	4.607098331258294e-05
C	1.2331736753937435	0.7592248279612859	-4.5409016687417065e-05
C	-1.3503324846062568	5.026653187961285	-5.6609016687417066e-05
N	-0.1099173746062565	5.660415887961285	9.261098331258294e-05
C	1.1541795153937433	5.075348327961286	-6.220901668741706e-05
O	2.157596575393743	5.7589955879612855	-1.9759016687417065e-05
O	-2.3795641446062565	5.670778257961286	-1.2489016687417065e-05
H	-3.4156171446062564	3.366501877961286	1.0950983312582934e-05
H	-3.4057808546062565	0.9119744879612859	2.4009833125829344e-06
H	3.282420325393743	3.4967661779612857	9.840983312582935e-06
H	3.3681452353937433	1.0438591079612858	6.190983312582934e-06
H	-0.12957421460625662	6.672997767961286	5.0990983312582934e-05
C	-1.232980524606257	-0.7592004920387141	8.009833125829345e-07
C	0.027869285393743226	-1.4332110720387141	4.395098331258294e-05
C	1.2616609153937435	-0.7107756020387139	-1.0139016687417065e-05
C	-2.3982849946062568	-1.5236054520387143	3.834098331258294e-05
C	-2.3650286746062563	-2.919568832038714	-4.338901668741706e-05
C	-1.159435784606257	-3.591933562038714	6.230098331258294e-05
C	0.05557097539374345	-2.8620615620387144	-7.742901668741707e-05
C	2.4556831353937434	-1.4294513320387146	4.458098331258294e-05
C	2.4765667253937433	-2.8256936720387142	-4.876901668741706e-05
C	1.2979460853937432	-3.544320782038714	6.365098331258293e-05
C	1.3502022253937436	-5.026765572038714	-6.634901668741706e-05
N	0.10972102539374351	-5.660419292038714	9.245098331258294e-05
C	-1.1543134246062565	-5.075241732038714	-7.232901668741706e-05
O	-2.157795044606257	-5.758801182038713	-1.6389016687417065e-05
O	2.3793740453937433	-5.670981142038714	-7.859016687417067e-06
H	-3.3679561946062564	-1.0436526820387142	1.609833125829347e-07
H	-3.282406164606257	-3.4965752720387138	1.1160983312582934e-05
H	3.4059734853937433	-0.912166452038714	1.8709833125829346e-06
H	3.415637565393743	-3.3666923820387145	9.750983312582936e-06
H	0.12922580539374318	-6.673003792038713	5.081098331258294e-05
C	-1.7446821561826256	1.4431290451968108	6.659622314517026
C	-1.767514650874529	2.8393113200333984	6.655239826113944
C	-0.9380229358671707	3.551213066162894	5.812213128956469
C	-0.05557049181152527	2.8620581358331565	4.943116963485403
C	-0.027669700338498644	1.4332130686691473	4.9431808951171226
C	-0.8961997171367057	0.7178457835873996	5.825235101908598
C	0.7996126048110708	3.585042115975801	4.074265096672242
C	1.6560046559153931	2.9059537423409556	3.2310696503366856
C	1.6875855406104954	1.5099360582620067	3.2266979170196928
C	0.867777138720288	0.752135759157096	4.060921673730057
C	-0.9835699352118059	5.033768299392938	5.828854276758895
N	-0.10982169624102976	5.660417514889403	4.943326409943093
C	0.787382918982572	5.068232097434473	4.057558194879775
O	1.4931632764866525	5.7461050859066924	3.3388220314180304
O	-1.7150875909525756	5.683669140613989	6.547690651475097
H	-2.434696601862105	3.385531901059084	7.311774124907884
H	-2.4138041131465178	0.9312190057525284	7.338479494807904
H	2.3015285132162804	3.477736253691615	2.574650023299813
H	2.3760849829686825	1.0246125114662743	2.54768537213922
H	-0.12950441249917416	6.67299889287574	4.943305641307318
C	-0.8676713950542724	-0.7521135775302135	5.825286803862034
C	0.027882001461860987	-1.4332110546169536	4.943174085506046
C	0.8962985913446083	-0.7178640071009771	4.060968879488477
C	-1.687426008972849	-1.5098147315779755	6.659637321449054
C	-1.6560350412354043	-2.9058143001683963	6.655214715811795
C	-0.7995254113173172	-3.584951385563638	5.812188837896213
C	0.055503413541900415	-2.8620631020520872	4.943101488445216
C	1.7448522670566684	-1.44324196556321	3.226722305296077
C	1.7674863995698515	-2.839450344344252	3.2310425045015627
C	0.9381072761866307	-3.551302028688453	4.074232280347796
C	0.9833923430348889	-5.033882060318587	4.0575293165992505
N	0.109814507122529	-5.660417707726191	4.943320215610372
C	-0.7875725231019118	-5.068127040586236	5.828816787185141
O	-1.4933294781631303	-5.745910512542618	6.547666960737933
O	1.714940735543659	-5.6838716443044515	3.338809044684417
H	-2.3759471528850855	-1.0244075376096302	7.338559547795628
H	-2.301503915916237	-3.477545603852861	7.311729104185271
H	2.4139452745580923	-0.9314124269144184	2.5477668804829703
H	2.4347275807233806	-3.3857226588620217	2.5746055960718173
H	0.12933083621466143	-6.673001983673024	4.9433896488987354
