80
133b_H_capped TS45.0
C	-2.4555399446062567	1.4293383479612858	5.073098331258294e-05
C	-2.4765196346062566	2.8255565679612857	-4.055901668741706e-05
C	-1.2979349446062565	3.544230857961286	4.262098331258294e-05
C	-0.0555069446062566	2.8620595979612857	-8.267901668741706e-05
C	-0.027704234606256595	1.4332126279612858	9.009098331258294e-05
C	-1.2614692146062567	0.7107596379612859	-4.305901668741706e-05
C	1.1594418953937433	3.592023177961286	5.4480983312582936e-05
C	2.365071235393743	2.9197101479612857	-4.2189016687417065e-05
C	2.3984260053937434	1.5237268779612858	4.607098331258294e-05
C	1.2331736753937435	0.7592248279612859	-4.5409016687417065e-05
C	-1.3503324846062568	5.026653187961285	-5.6609016687417066e-05
N	-0.1099173746062565	5.660415887961285	9.261098331258294e-05
C	1.1541795153937433	5.075348327961286	-6.220901668741706e-05
O	2.157596575393743	5.7589955879612855	-1.9759016687417065e-05
O	-2.3795641446062565	5.670778257961286	-1.2489016687417065e-05
H	-3.4156171446062564	3.366501877961286	1.0950983312582934e-05
H	-3.4057808546062565	0.9119744879612859	2.4009833125829344e-06
H	3.282420325393743	3.4967661779612857	9.840983312582935e-06
H	3.3681452353937433	1.0438591079612858	6.190983312582934e-06
H	-0.12957421460625662	6.672997767961286	5.0990983312582934e-05
C	-1.232980524606257	-0.7592004920387141	8.009833125829345e-07
C	0.027869285393743226	-1.4332110720387141	4.395098331258294e-05
C	1.2616609153937435	-0.7107756020387139	-1.0139016687417065e-05
C	-2.3982849946062568	-1.5236054520387143	3.834098331258294e-05
C	-2.3650286746062563	-2.919568832038714	-4.338901668741706e-05
C	-1.159435784606257	-3.591933562038714	6.230098331258294e-05
C	0.05557097539374345	-2.8620615620387144	-7.742901668741707e-05
C	2.4556831353937434	-1.4294513320387146	4.458098331258294e-05
C	2.4765667253937433	-2.8256936720387142	-4.876901668741706e-05
C	1.2979460853937432	-3.544320782038714	6.365098331258293e-05
C	1.3502022253937436	-5.026765572038714	-6.634901668741706e-05
N	0.10972102539374351	-5.660419292038714	9.245098331258294e-05
C	-1.1543134246062565	-5.075241732038714	-7.232901668741706e-05
O	-2.157795044606257	-5.758801182038713	-1.6389016687417065e-05
O	2.3793740453937433	-5.670981142038714	-7.859016687417067e-06
H	-3.3679561946062564	-1.0436526820387142	1.609833125829347e-07
H	-3.282406164606257	-3.4965752720387138	1.1160983312582934e-05
H	3.4059734853937433	-0.912166452038714	1.8709833125829346e-06
H	3.415637565393743	-3.3666923820387145	9.750983312582936e-06
H	0.12922580539374318	-6.673003792038713	5.081098331258294e-05
C	-2.447151887326306	0.9969405837194324	-8.311376993716356
C	-2.4601973779372015	1.9841861066204247	-9.29881892429911
C	-1.2776615764566102	2.499198168316953	-9.790678932891046
C	-0.039243559905111795	2.02372372513724	-9.291449677921277
C	-0.019562252736525686	1.0134989565697716	-8.280788880555544
C	-1.257293041435964	0.49546577157371435	-7.787049596812018
C	1.1797157680634542	2.5469644824490953	-9.790753991344229
C	2.3813947826256125	2.07827316385645	-9.298978718522878
C	2.406815365625761	1.0912619523701743	-8.311535301940541
C	1.2373502633101436	0.5439095832742428	-7.787099277334855
C	-1.3216316994922128	3.547224628446501	-10.839501436308968
N	-0.07775550224070178	4.002583669625844	-11.270436439321674
C	1.1828809784121896	3.5958848255345512	-10.839580622483656
O	2.190070055156195	4.085101394874116	-11.309108775183509
O	-2.347091861857876	3.9969457655685177	-11.308966314571553
H	-3.3961194938338286	2.3614539700350945	-9.694096948685221
H	-3.400226089795846	0.6256203522626816	-7.9586816530815945
H	3.301919795428363	2.491624495163454	-9.694323372086744
H	3.3737025930639195	0.7573713218345763	-7.9590092751503585
H	-0.0916580561363584	4.718557688616802	-11.98660428272185
C	-1.2371575879338357	-0.5439221612824194	-6.747404619083299
C	0.01972425151126614	-1.0134015037342579	-6.253572971783349
C	1.257484155882386	-0.4955129315669207	-6.747431902498973
C	-2.406676042621233	-1.0911149490944965	-6.222946718774911
C	-2.3813514542672127	-2.0782328317180467	-5.235638915285921
C	-1.179711954853193	-2.5468178572641285	-4.74368450172822
C	0.03930856428473906	-2.0238372918471237	-5.243119066882624
C	2.44729190912146	-0.9969516407790785	-6.222931567918649
C	2.460243705781489	-1.9843453032535237	-5.235604463397172
C	1.2776695434622496	-2.4991859185910577	-4.743639992817194
C	1.3215012985499486	-3.5473911255863015	-3.694965640246372
N	0.07755541289378302	-4.002455707609816	-3.26389078666804
C	-1.1830136263001094	-3.5959046637890526	-3.6950495055417734
O	-2.190268106647202	-4.084989939972292	-3.225514745451658
O	2.3468997060966332	-3.997104063171737	-3.2253650453759883
H	-3.3735136918993236	-0.7572191186665024	-6.575587376327384
H	-3.30190604408197	-2.4914739041906717	-4.840254346633403
H	3.4004163462051764	-0.6257513473802884	-6.5756347686673555
H	3.396137342164632	-2.36157329522429	-4.840211249449586
H	0.09130705063160661	-4.7184913058745535	-2.547782050305906
