80
133b_H_capped cofacial 4.5A
C	-2.4555399446062567	1.4293383479612858	5.073098331258294e-05
C	-2.4765196346062566	2.8255565679612857	-4.055901668741706e-05
C	-1.2979349446062565	3.544230857961286	4.262098331258294e-05
C	-0.0555069446062566	2.8620595979612857	-8.267901668741706e-05
C	-0.027704234606256595	1.4332126279612858	9.009098331258294e-05
C	-1.2614692146062567	0.7107596379612859	-4.305901668741706e-05
C	1.1594418953937433	3.592023177961286	5.4480983312582936e-05
C	2.365071235393743	2.9197101479612857	-4.2189016687417065e-05
C	2.3984260053937434	1.5237268779612858	4.607098331258294e-05
C	1.2331736753937435	0.7592248279612859	-4.5409016687417065e-05
C	-1.3503324846062568	5.026653187961285	-5.6609016687417066e-05
N	-0.1099173746062565	5.660415887961285	9.261098331258294e-05
C	1.1541795153937433	5.075348327961286	-6.220901668741706e-05
O	2.157596575393743	5.7589955879612855	-1.9759016687417065e-05
O	-2.3795641446062565	5.670778257961286	-1.2489016687417065e-05
H	-3.4156171446062564	3.366501877961286	1.0950983312582934e-05
H	-3.4057808546062565	0.9119744879612859	2.4009833125829344e-06
H	3.282420325393743	3.4967661779612857	9.840983312582935e-06
H	3.3681452353937433	1.0438591079612858	6.190983312582934e-06
H	-0.12957421460625662	6.672997767961286	5.0990983312582934e-05
C	-1.232980524606257	-0.7592004920387141	8.009833125829345e-07
C	0.027869285393743226	-1.4332110720387141	4.395098331258294e-05
C	1.2616609153937435	-0.7107756020387139	-1.0139016687417065e-05
C	-2.3982849946062568	-1.5236054520387143	3.834098331258294e-05
C	-2.3650286746062563	-2.919568832038714	-4.338901668741706e-05
C	-1.159435784606257	-3.591933562038714	6.230098331258294e-05
C	0.05557097539374345	-2.8620615620387144	-7.742901668741707e-05
C	2.4556831353937434	-1.4294513320387146	4.458098331258294e-05
C	2.4765667253937433	-2.8256936720387142	-4.876901668741706e-05
C	1.2979460853937432	-3.544320782038714	6.365098331258293e-05
C	1.3502022253937436	-5.026765572038714	-6.634901668741706e-05
N	0.10972102539374351	-5.660419292038714	9.245098331258294e-05
C	-1.1543134246062565	-5.075241732038714	-7.232901668741706e-05
O	-2.157795044606257	-5.758801182038713	-1.6389016687417065e-05
O	2.3793740453937433	-5.670981142038714	-7.859016687417067e-06
H	-3.3679561946062564	-1.0436526820387142	1.609833125829347e-07
H	-3.282406164606257	-3.4965752720387138	1.1160983312582934e-05
H	3.4059734853937433	-0.912166452038714	1.8709833125829346e-06
H	3.415637565393743	-3.3666923820387145	9.750983312582936e-06
H	0.12922580539374318	-6.673003792038713	5.081098331258294e-05
C	-2.455539571779381	1.4293381464714687	4.500050730983293
C	-2.476519261779381	2.825556366471469	4.499959440983293
C	-1.2979345717793809	3.544230656471469	4.500042620983293
C	-0.055506571779381064	2.862059396471469	4.499917320983293
C	-0.027703861779381053	1.4332124264714687	4.500090090983293
C	-1.2614688417793811	0.7107594364714689	4.499956940983293
C	1.159442268220619	3.592022976471469	4.500054480983293
C	2.3650716082206187	2.919709946471469	4.499957810983293
C	2.398426378220619	1.5237266764714688	4.500046070983293
C	1.233174048220619	0.7592246264714688	4.499954590983293
C	-1.3503321117793812	5.026652986471468	4.499943390983293
N	-0.10991700177938096	5.6604156864714685	4.500092610983293
C	1.154179888220619	5.075348126471469	4.499937790983293
O	2.1575969482206188	5.758995386471469	4.499980240983293
O	-2.379563771779381	5.67077805647147	4.499987510983293
H	-3.415616771779381	3.366501676471469	4.500010950983293
H	-3.405780481779381	0.9119742864714688	4.500002400983293
H	3.2824206982206188	3.496765976471469	4.500009840983293
H	3.368145608220619	1.0438589064714687	4.500006190983293
H	-0.12957384177938108	6.672997566471469	4.500050990983293
C	-1.2329801517793815	-0.7592006935285311	4.500000800983293
C	0.02786965822061877	-1.4332112735285312	4.500043950983293
C	1.261661288220619	-0.710775803528531	4.499989860983293
C	-2.398284621779381	-1.5236056535285314	4.500038340983293
C	-2.3650283017793807	-2.9195690335285307	4.499956610983293
C	-1.1594354117793815	-3.5919337635285307	4.500062300983293
C	0.05557134822061899	-2.8620617635285313	4.499922570983293
C	2.455683508220619	-1.4294515335285316	4.500044580983293
C	2.476567098220619	-2.825693873528531	4.499951230983293
C	1.2979464582206188	-3.544320983528531	4.500063650983293
C	1.3502025982206192	-5.026765773528531	4.4999336509832935
N	0.10972139822061905	-5.660419493528531	4.500092450983293
C	-1.154313051779381	-5.075241933528531	4.499927670983293
O	-2.1577946717793814	-5.75880138352853	4.499983610983293
O	2.379374418220619	-5.670981343528531	4.499992140983293
H	-3.367955821779381	-1.0436528835285312	4.500000160983293
H	-3.2824057917793814	-3.4965754735285306	4.500011160983293
H	3.405973858220619	-0.9121666535285311	4.500001870983293
H	3.415637938220619	-3.3666925835285313	4.500009750983293
H	0.12922617822061871	-6.67300399352853	4.500050810983293
