80
133b_H_capped cofacial 5.0A
C	-2.4555399446062567	1.4293383479612858	5.073098331258294e-05
C	-2.4765196346062566	2.8255565679612857	-4.055901668741706e-05
C	-1.2979349446062565	3.544230857961286	4.262098331258294e-05
C	-0.0555069446062566	2.8620595979612857	-8.267901668741706e-05
C	-0.027704234606256595	1.4332126279612858	9.009098331258294e-05
C	-1.2614692146062567	0.7107596379612859	-4.305901668741706e-05
C	1.1594418953937433	3.592023177961286	5.4480983312582936e-05
C	2.365071235393743	2.9197101479612857	-4.2189016687417065e-05
C	2.3984260053937434	1.5237268779612858	4.607098331258294e-05
C	1.2331736753937435	0.7592248279612859	-4.5409016687417065e-05
C	-1.3503324846062568	5.026653187961285	-5.6609016687417066e-05
N	-0.1099173746062565	5.660415887961285	9.261098331258294e-05
C	1.1541795153937433	5.075348327961286	-6.220901668741706e-05
O	2.157596575393743	5.7589955879612855	-1.9759016687417065e-05
O	-2.3795641446062565	5.670778257961286	-1.2489016687417065e-05
H	-3.4156171446062564	3.366501877961286	1.0950983312582934e-05
H	-3.4057808546062565	0.9119744879612859	2.4009833125829344e-06
H	3.282420325393743	3.4967661779612857	9.840983312582935e-06
H	3.3681452353937433	1.0438591079612858	6.190983312582934e-06
H	-0.12957421460625662	6.672997767961286	5.0990983312582934e-05
C	-1.232980524606257	-0.7592004920387141	8.009833125829345e-07
C	0.027869285393743226	-1.4332110720387141	4.395098331258294e-05
C	1.2616609153937435	-0.7107756020387139	-1.0139016687417065e-05
C	-2.3982849946062568	-1.5236054520387143	3.834098331258294e-05
C	-2.3650286746062563	-2.919568832038714	-4.338901668741706e-05
C	-1.159435784606257	-3.591933562038714	6.230098331258294e-05
C	0.05557097539374345	-2.8620615620387144	-7.742901668741707e-05
C	2.4556831353937434	-1.4294513320387146	4.458098331258294e-05
C	2.4765667253937433	-2.8256936720387142	-4.876901668741706e-05
C	1.2979460853937432	-3.544320782038714	6.365098331258293e-05
C	1.3502022253937436	-5.026765572038714	-6.634901668741706e-05
N	0.10972102539374351	-5.660419292038714	9.245098331258294e-05
C	-1.1543134246062565	-5.075241732038714	-7.232901668741706e-05
O	-2.157795044606257	-5.758801182038713	-1.6389016687417065e-05
O	2.3793740453937433	-5.670981142038714	-7.859016687417067e-06
H	-3.3679561946062564	-1.0436526820387142	1.609833125829347e-07
H	-3.282406164606257	-3.4965752720387138	1.1160983312582934e-05
H	3.4059734853937433	-0.912166452038714	1.8709833125829346e-06
H	3.415637565393743	-3.3666923820387145	9.750983312582936e-06
H	0.12922580539374318	-6.673003792038713	5.081098331258294e-05
C	-2.455539530354173	1.4293381240837113	5.000050730983291
C	-2.476519220354173	2.825556344083711	4.99995944098329
C	-1.2979345303541725	3.544230634083711	5.00004262098329
C	-0.05550653035417267	2.862059374083711	4.999917320983291
C	-0.02770382035417266	1.4332124040837113	5.00009009098329
C	-1.2614688003541727	0.7107594140837115	4.9999569409832905
C	1.1594423096458273	3.592022954083711	5.00005448098329
C	2.365071649645827	2.919709924083711	4.9999578109832905
C	2.398426419645827	1.5237266540837113	5.000046070983291
C	1.2331740896458274	0.7592246040837114	4.9999545909832905
C	-1.3503320703541728	5.026652964083711	4.99994339098329
N	-0.10991696035417256	5.660415664083711	5.00009261098329
C	1.1541799296458273	5.075348104083711	4.9999377909832905
O	2.157596989645827	5.758995364083711	4.99998024098329
O	-2.379563730354173	5.670778034083712	4.99998751098329
H	-3.4156167303541727	3.366501654083711	5.00001095098329
H	-3.4057804403541727	0.9119742640837114	5.00000240098329
H	3.282420739645827	3.496765954083711	5.0000098409832905
H	3.368145649645827	1.0438588840837113	5.0000061909832905
H	-0.12957380035417268	6.672997544083712	5.00005099098329
C	-1.232980110354173	-0.7592007159162886	5.00000080098329
C	0.02786969964582716	-1.4332112959162886	5.00004395098329
C	1.2616613296458274	-0.7107758259162884	4.99998986098329
C	-2.398284580354173	-1.5236056759162888	5.0000383409832905
C	-2.3650282603541726	-2.9195690559162886	4.999956610983291
C	-1.159435370354173	-3.5919337859162885	5.0000623009832905
C	0.05557138964582738	-2.862061785916289	4.999922570983291
C	2.455683549645827	-1.429451555916289	5.000044580983291
C	2.476567139645827	-2.825693895916289	4.9999512309832905
C	1.2979464996458272	-3.544321005916289	5.00006365098329
C	1.3502026396458275	-5.026765795916289	4.999933650983291
N	0.10972143964582745	-5.6604195159162884	5.00009245098329
C	-1.1543130103541726	-5.0752419559162885	4.999927670983291
O	-2.1577946303541733	-5.758801405916287	4.99998361098329
O	2.379374459645827	-5.670981365916289	4.999992140983291
H	-3.3679557803541726	-1.0436529059162887	5.000000160983291
H	-3.2824057503541733	-3.4965754959162885	5.0000111609832905
H	3.405973899645827	-0.9121666759162885	5.00000187098329
H	3.415637979645827	-3.366692605916289	5.00000975098329
H	0.12922621964582712	-6.673004015916288	5.00005081098329
