80
133b_H_capped PD long+short
C	-2.4555399446062567	1.4293383479612858	5.073098331258294e-05
C	-2.4765196346062566	2.8255565679612857	-4.055901668741706e-05
C	-1.2979349446062565	3.544230857961286	4.262098331258294e-05
C	-0.0555069446062566	2.8620595979612857	-8.267901668741706e-05
C	-0.027704234606256595	1.4332126279612858	9.009098331258294e-05
C	-1.2614692146062567	0.7107596379612859	-4.305901668741706e-05
C	1.1594418953937433	3.592023177961286	5.4480983312582936e-05
C	2.365071235393743	2.9197101479612857	-4.2189016687417065e-05
C	2.3984260053937434	1.5237268779612858	4.607098331258294e-05
C	1.2331736753937435	0.7592248279612859	-4.5409016687417065e-05
C	-1.3503324846062568	5.026653187961285	-5.6609016687417066e-05
N	-0.1099173746062565	5.660415887961285	9.261098331258294e-05
C	1.1541795153937433	5.075348327961286	-6.220901668741706e-05
O	2.157596575393743	5.7589955879612855	-1.9759016687417065e-05
O	-2.3795641446062565	5.670778257961286	-1.2489016687417065e-05
H	-3.4156171446062564	3.366501877961286	1.0950983312582934e-05
H	-3.4057808546062565	0.9119744879612859	2.4009833125829344e-06
H	3.282420325393743	3.4967661779612857	9.840983312582935e-06
H	3.3681452353937433	1.0438591079612858	6.190983312582934e-06
H	-0.12957421460625662	6.672997767961286	5.0990983312582934e-05
C	-1.232980524606257	-0.7592004920387141	8.009833125829345e-07
C	0.027869285393743226	-1.4332110720387141	4.395098331258294e-05
C	1.2616609153937435	-0.7107756020387139	-1.0139016687417065e-05
C	-2.3982849946062568	-1.5236054520387143	3.834098331258294e-05
C	-2.3650286746062563	-2.919568832038714	-4.338901668741706e-05
C	-1.159435784606257	-3.591933562038714	6.230098331258294e-05
C	0.05557097539374345	-2.8620615620387144	-7.742901668741707e-05
C	2.4556831353937434	-1.4294513320387146	4.458098331258294e-05
C	2.4765667253937433	-2.8256936720387142	-4.876901668741706e-05
C	1.2979460853937432	-3.544320782038714	6.365098331258293e-05
C	1.3502022253937436	-5.026765572038714	-6.634901668741706e-05
N	0.10972102539374351	-5.660419292038714	9.245098331258294e-05
C	-1.1543134246062565	-5.075241732038714	-7.232901668741706e-05
O	-2.157795044606257	-5.758801182038713	-1.6389016687417065e-05
O	2.3793740453937433	-5.670981142038714	-7.859016687417067e-06
H	-3.3679561946062564	-1.0436526820387142	1.609833125829347e-07
H	-3.282406164606257	-3.4965752720387138	1.1160983312582934e-05
H	3.4059734853937433	-0.912166452038714	1.8709833125829346e-06
H	3.415637565393743	-3.3666923820387145	9.750983312582936e-06
H	0.12922580539374318	-6.673003792038713	5.081098331258294e-05
C	-4.774298677815141	5.272212357373348	3.500051095160118
C	-4.79527836781514	6.668430577373348	3.499959805160118
C	-3.61669367781514	7.387104867373348	3.500042985160118
C	-2.3742656778151403	6.7049336073733485	3.499917685160118
C	-2.3464629678151403	5.276086637373348	3.500090455160118
C	-3.5802279478151404	4.553633647373348	3.499957305160118
C	-1.1593168378151404	7.434897187373348	3.500054845160118
C	0.04631250218485929	6.7625841573733485	3.499958175160118
C	0.0796672721848596	5.366600887373348	3.500046435160118
C	-1.0855850578151403	4.602098837373348	3.499954955160118
C	-3.6690912178151405	8.869527197373348	3.499943755160118
N	-2.42867610781514	9.503289897373348	3.500092975160118
C	-1.1645792178151404	8.918222337373349	3.499938155160118
O	-0.16116215781514062	9.601869597373348	3.499980605160118
O	-4.698322877815141	9.513652267373349	3.499987875160118
H	-5.73437587781514	7.209375887373348	3.500011315160118
H	-5.724539587815141	4.754848497373349	3.500002765160118
H	0.9636615921848594	7.339640187373348	3.500010205160118
H	1.0493865021848596	4.886733117373348	3.500006555160118
H	-2.4483329478151403	10.515871777373349	3.5000513551601182
C	-3.5517392578151408	3.0836735173733483	3.500001165160118
C	-2.2908894478151405	2.4096629373733482	3.500044315160118
C	-1.0570978178151402	3.1320984073733484	3.499990225160118
C	-4.71704372781514	2.319268557373348	3.500038705160118
C	-4.6837874078151405	0.9233051773733484	3.499956975160118
C	-3.4781945178151408	0.25094044737334836	3.500062665160118
C	-2.2631877578151403	0.9808124473733478	3.499922935160118
C	0.1369244021848596	2.413422677373348	3.500044945160118
C	0.15780799218485955	1.017180337373348	3.499951595160118
C	-1.0208126478151405	0.29855322737334805	3.500064015160118
C	-0.9685565078151402	-1.1838915626266522	3.499934015160118
N	-2.20903770781514	-1.817545282626652	3.500092815160118
C	-3.4730721578151402	-1.232367722626652	3.499928035160118
O	-4.476553777815141	-1.915927172626651	3.499983975160118
O	0.060615312184859514	-1.8281071326266523	3.499992505160118
H	-5.6867149278151405	2.799221327373348	3.500000525160118
H	-5.60116489781514	0.34629873737334843	3.500011525160118
H	1.0872147521848596	2.9307075573733483	3.500002235160118
H	1.0968788321848595	0.47618162737334774	3.500010115160118
H	-2.1895329278151405	-2.830129782626651	3.500051175160118
