80
133b_H_capped TS90.0
C	-2.4555399446062567	1.4293383479612858	5.073098331258294e-05
C	-2.4765196346062566	2.8255565679612857	-4.055901668741706e-05
C	-1.2979349446062565	3.544230857961286	4.262098331258294e-05
C	-0.0555069446062566	2.8620595979612857	-8.267901668741706e-05
C	-0.027704234606256595	1.4332126279612858	9.009098331258294e-05
C	-1.2614692146062567	0.7107596379612859	-4.305901668741706e-05
C	1.1594418953937433	3.592023177961286	5.4480983312582936e-05
C	2.365071235393743	2.9197101479612857	-4.2189016687417065e-05
C	2.3984260053937434	1.5237268779612858	4.607098331258294e-05
C	1.2331736753937435	0.7592248279612859	-4.5409016687417065e-05
C	-1.3503324846062568	5.026653187961285	-5.6609016687417066e-05
N	-0.1099173746062565	5.660415887961285	9.261098331258294e-05
C	1.1541795153937433	5.075348327961286	-6.220901668741706e-05
O	2.157596575393743	5.7589955879612855	-1.9759016687417065e-05
O	-2.3795641446062565	5.670778257961286	-1.2489016687417065e-05
H	-3.4156171446062564	3.366501877961286	1.0950983312582934e-05
H	-3.4057808546062565	0.9119744879612859	2.4009833125829344e-06
H	3.282420325393743	3.4967661779612857	9.840983312582935e-06
H	3.3681452353937433	1.0438591079612858	6.190983312582934e-06
H	-0.12957421460625662	6.672997767961286	5.0990983312582934e-05
C	-1.232980524606257	-0.7592004920387141	8.009833125829345e-07
C	0.027869285393743226	-1.4332110720387141	4.395098331258294e-05
C	1.2616609153937435	-0.7107756020387139	-1.0139016687417065e-05
C	-2.3982849946062568	-1.5236054520387143	3.834098331258294e-05
C	-2.3650286746062563	-2.919568832038714	-4.338901668741706e-05
C	-1.159435784606257	-3.591933562038714	6.230098331258294e-05
C	0.05557097539374345	-2.8620615620387144	-7.742901668741707e-05
C	2.4556831353937434	-1.4294513320387146	4.458098331258294e-05
C	2.4765667253937433	-2.8256936720387142	-4.876901668741706e-05
C	1.2979460853937432	-3.544320782038714	6.365098331258293e-05
C	1.3502022253937436	-5.026765572038714	-6.634901668741706e-05
N	0.10972102539374351	-5.660419292038714	9.245098331258294e-05
C	-1.1543134246062565	-5.075241732038714	-7.232901668741706e-05
O	-2.157795044606257	-5.758801182038713	-1.6389016687417065e-05
O	2.3793740453937433	-5.670981142038714	-7.859016687417067e-06
H	-3.3679561946062564	-1.0436526820387142	1.609833125829347e-07
H	-3.282406164606257	-3.4965752720387138	1.1160983312582934e-05
H	3.4059734853937433	-0.912166452038714	1.8709833125829346e-06
H	3.415637565393743	-3.3666923820387145	9.750983312582936e-06
H	0.12922580539374318	-6.673003792038713	5.081098331258294e-05
C	-2.4268985034476667	-0.047032092974266755	-11.020954675543543
C	-2.420791484644209	-0.04700492035110899	-12.417317156122747
C	-1.2287144911973618	-0.02379472113976923	-13.112995488310553
C	1.905270918997747e-05	-8.188225089606422e-05	-12.40685346420722
C	9.813269475562163e-05	9.245445870239817e-05	-10.977736027617746
C	-1.2472107013764624	-0.024239254754558442	-10.279350026370642
C	1.2286644022171775	0.023891755002242658	-13.11311361500569
C	2.420803757813907	0.04692328023335099	-12.417541741792972
C	2.427071778220377	0.04713316017007973	-11.021174130287296
C	1.2474335458097319	0.024155978768326262	-10.27941805504211
C	-1.2523415800711202	-0.02435234940641801	-14.59615526603153
N	-0.00010541227231496954	9.102603935623162e-05	-15.205738671930668
C	1.2521725864686004	0.024231115817932795	-14.596261772470001
O	2.268469360899434	0.043990336438284025	-15.260317352740593
O	-2.2686952567626046	-0.04402608767429231	-15.260122935119194
H	-3.3490460453387065	-0.06496209191469518	-12.976376164539369
H	-3.3868142647501593	-0.06570336947129181	-10.522119765333215
H	3.348997620662153	0.06498283370610194	-12.976695587250129
H	3.3871207970792594	0.0657187953442322	-10.522587208216278
H	-0.00011691492775546853	4.917504920211648e-05	-16.218511329002098
C	-1.2472407119747329	-0.024195968724741293	-8.809113858812205
C	6.270467267146485e-05	4.561845161565114e-05	-8.110773655571853
C	1.2474014708335366	0.024190633131568964	-8.80914162319086
C	-2.426931684483004	-0.047045129037605715	-8.06745586664916
C	-2.420758394019703	-0.04700710890585894	-6.671110051014621
C	-1.228660402499921	-0.02377398808361593	-5.975487194541188
C	4.644001352670576e-05	-7.609993300881202e-05	-6.681654659107493
C	2.4270360189939866	0.04713097613939395	-8.067440913208717
C	2.420836050036698	0.04691732548348038	-6.671056181198046
C	1.22872024104106	0.023902010034183983	-5.975425717448317
C	1.2522099939069826	0.024227700765405428	-4.492246226657775
N	-9.610020982629159e-05	9.10466687292821e-05	-3.8827730621889547
C	-1.2523033499347227	-0.02436733067716713	-4.492358729819699
O	-2.268664865630131	-0.044029398802179806	-3.828392195285171
O	2.268500107713514	0.04400283518397828	-3.8281892352997664
H	-3.386929528870798	-0.06570784608539508	-8.566126841101259
H	-3.348981751803801	-0.06496063454236103	-6.112006337096435
H	3.387001435923585	0.06571215885380781	-8.566195899301084
H	3.3490607809262913	0.06498396903585618	-6.111944300140013
H	-0.00023503616391180532	4.670339291725108e-05	-2.870000735085049
