80
133b_H_capped PD short
C	-2.4555399446062567	1.4293383479612858	5.073098331258294e-05
C	-2.4765196346062566	2.8255565679612857	-4.055901668741706e-05
C	-1.2979349446062565	3.544230857961286	4.262098331258294e-05
C	-0.0555069446062566	2.8620595979612857	-8.267901668741706e-05
C	-0.027704234606256595	1.4332126279612858	9.009098331258294e-05
C	-1.2614692146062567	0.7107596379612859	-4.305901668741706e-05
C	1.1594418953937433	3.592023177961286	5.4480983312582936e-05
C	2.365071235393743	2.9197101479612857	-4.2189016687417065e-05
C	2.3984260053937434	1.5237268779612858	4.607098331258294e-05
C	1.2331736753937435	0.7592248279612859	-4.5409016687417065e-05
C	-1.3503324846062568	5.026653187961285	-5.6609016687417066e-05
N	-0.1099173746062565	5.660415887961285	9.261098331258294e-05
C	1.1541795153937433	5.075348327961286	-6.220901668741706e-05
O	2.157596575393743	5.7589955879612855	-1.9759016687417065e-05
O	-2.3795641446062565	5.670778257961286	-1.2489016687417065e-05
H	-3.4156171446062564	3.366501877961286	1.0950983312582934e-05
H	-3.4057808546062565	0.9119744879612859	2.4009833125829344e-06
H	3.282420325393743	3.4967661779612857	9.840983312582935e-06
H	3.3681452353937433	1.0438591079612858	6.190983312582934e-06
H	-0.12957421460625662	6.672997767961286	5.0990983312582934e-05
C	-1.232980524606257	-0.7592004920387141	8.009833125829345e-07
C	0.027869285393743226	-1.4332110720387141	4.395098331258294e-05
C	1.2616609153937435	-0.7107756020387139	-1.0139016687417065e-05
C	-2.3982849946062568	-1.5236054520387143	3.834098331258294e-05
C	-2.3650286746062563	-2.919568832038714	-4.338901668741706e-05
C	-1.159435784606257	-3.591933562038714	6.230098331258294e-05
C	0.05557097539374345	-2.8620615620387144	-7.742901668741707e-05
C	2.4556831353937434	-1.4294513320387146	4.458098331258294e-05
C	2.4765667253937433	-2.8256936720387142	-4.876901668741706e-05
C	1.2979460853937432	-3.544320782038714	6.365098331258293e-05
C	1.3502022253937436	-5.026765572038714	-6.634901668741706e-05
N	0.10972102539374351	-5.660419292038714	9.245098331258294e-05
C	-1.1543134246062565	-5.075241732038714	-7.232901668741706e-05
O	-2.157795044606257	-5.758801182038713	-1.6389016687417065e-05
O	2.3793740453937433	-5.670981142038714	-7.859016687417067e-06
H	-3.3679561946062564	-1.0436526820387142	1.609833125829347e-07
H	-3.282406164606257	-3.4965752720387138	1.1160983312582934e-05
H	3.4059734853937433	-0.912166452038714	1.8709833125829346e-06
H	3.415637565393743	-3.3666923820387145	9.750983312582936e-06
H	0.12922580539374318	-6.673003792038713	5.081098331258294e-05
C	-4.698900589632727	1.3858158371276283	3.5000509148979497
C	-4.719880279632726	2.7820340571276287	3.49995962489795
C	-3.541295589632726	3.500708347127629	3.5000428048979497
C	-2.298867589632726	2.8185370871276287	3.4999175048979496
C	-2.271064879632726	1.3896901171276284	3.50009027489795
C	-3.5048298596327263	0.6672371271276287	3.4999571248979495
C	-1.0839187496327263	3.548500667127629	3.5000546648979496
C	0.1217105903672734	2.8761876371276287	3.4999579948979496
C	0.15506536036727372	1.4802043671276284	3.5000462548979496
C	-1.0101869696327261	0.7157023171276287	3.4999547748979496
C	-3.5936931296327264	4.983130677127628	3.4999435748979497
N	-2.353278019632726	5.616893377127628	3.5000927948979497
C	-1.0891811296327263	5.031825817127628	3.4999379748979496
O	-0.08576406963272652	5.715473077127628	3.4999804248979496
O	-4.622924789632727	5.627255747127629	3.49998769489795
H	-5.658977789632726	3.322979367127629	3.50001113489795
H	-5.6491414996327265	0.8684519771276287	3.50000258489795
H	1.0390596803672736	3.4532436671276288	3.5000100248979495
H	1.1247845903672737	1.0003365971276283	3.5000063748979495
H	-2.372934859632726	6.629475257127629	3.5000511748979495
C	-3.4763411696327267	-0.8027230028723713	3.50000098489795
C	-2.2154913596327264	-1.4767335828723716	3.5000441348979496
C	-0.9816997296327262	-0.7542981128723711	3.4999900448979497
C	-4.641645639632726	-1.5671279628723718	3.5000385248979495
C	-4.608389319632726	-2.963091342872371	3.4999567948979498
C	-3.4027964296327267	-3.635456072872371	3.5000624848979496
C	-2.187789669632726	-2.9055840728723714	3.4999227548979497
C	0.21232249036727371	-1.472973842872372	3.50004476489795
C	0.23320608036727367	-2.8692161828723712	3.4999514148979496
C	-0.9454145596327265	-3.587843292872371	3.50006383489795
C	-0.8931584196327261	-5.070288082872372	3.49993383489795
N	-2.133639619632726	-5.703941802872372	3.5000926348979498
C	-3.397674069632726	-5.118764242872372	3.4999278548979498
O	-4.401155689632727	-5.8023236928723705	3.4999837948979495
O	0.13601340036727363	-5.714503652872372	3.4999923248979496
H	-5.611316839632726	-1.0871751928723716	3.5000003448979498
H	-5.525766809632726	-3.5400977828723708	3.5000113448979495
H	1.1626128403672737	-0.9556889628723713	3.5000020548979496
H	1.1722769203672736	-3.4102148928723715	3.5000099348979496
H	-2.1141348396327264	-6.716526302872371	3.5000509948979497
