52
132b cofacial 5.0A
C	-2.4307380686677527	-0.6986837563577525	-0.00012048020036662509
C	-2.4284844086677526	0.7064666936422476	0.0001339897996333749
C	-1.235894218667752	1.4040280736422475	-0.0001891702003666251
C	0.001139311332247761	0.7105561536422476	0.0002193097996333749
C	-0.0011394286677521848	-0.7105560163577525	-0.0002047202003666251
C	-1.2403868886677523	-1.4000643863577524	0.00015435979963337489
C	1.2403867713322478	1.4000642636422476	-0.0001844902003666251
C	2.4307379313322475	0.6986838136422475	0.0001377397996333749
C	2.4284844113322475	-0.7064666163577524	-0.0001339202003666251
C	1.2358941513322477	-1.4040278563577526	0.0001761597996333749
C	-1.2521514586677527	2.8919852436422473	0.0001320997996333749
N	0.005587381332247787	3.4945814836422473	-6.302020036662508e-05
C	1.2613981813322477	2.8879664836422476	0.00011242979963337491
O	2.2753392613322476	3.5516262536422474	-3.6650200366625096e-05
O	-2.263969378667752	3.5588789436422474	-4.3980200366625095e-05
C	-1.2613979486677525	-2.8879667163577527	-7.641020036662509e-05
N	-0.005586868667752487	-3.4945815663577524	4.5089799633374904e-05
C	1.2521515313322475	-2.8919847163577526	-0.00010572020036662509
O	2.263968951332248	-3.5588794063577525	3.3049799633374904e-05
O	-2.2753392086677526	-3.5516262463577526	2.4989799633374907e-05
H	-3.3575365086677524	1.2642132536422475	-1.6770200366625093e-05
H	-3.3615792686677524	-1.2534397163577526	1.2559799633374906e-05
H	3.3615789713322477	1.2534398736422474	-1.2960200366625094e-05
H	3.3575366113322476	-1.2642129263577526	1.3989799633374905e-05
H	0.0071985613322476105	4.507782393642247	3.4097996333749063e-06
H	-0.007197978667752292	-4.507782376357753	-2.320200366625094e-06
C	-2.430737748619398	-0.6986901569668432	4.999879519795527
C	-2.428484088619398	0.7064602930331568	5.000133989795526
C	-1.2358938986193975	1.4040216730331567	4.999810829795527
C	0.0011396313806021747	0.7105497530331568	5.0002193097955265
C	-0.0011391086193977711	-0.7105624169668432	4.999795279795526
C	-1.2403865686193978	-1.4000707869668432	5.000154359795526
C	1.2403870913806023	1.4000578630331568	4.999815509795527
C	2.430738251380602	0.6986774130331568	5.000137739795527
C	2.428484731380602	-0.7064730169668432	4.9998660797955266
C	1.2358944713806022	-1.4040342569668434	5.000176159795527
C	-1.2521511386193982	2.8919788430331566	5.000132099795526
N	0.0055877013806022	3.4945750830331566	4.999936979795526
C	1.2613985013806022	2.887960083033157	5.000112429795527
O	2.275339581380602	3.5516198530331566	4.999963349795526
O	-2.2639690586193977	3.5588725430331567	4.999956019795526
C	-1.261397628619398	-2.8879731169668434	4.999923589795526
N	-0.005586548619398074	-3.494587966966843	5.000045089795527
C	1.252151851380602	-2.8919911169668433	4.999894279795527
O	2.2639692713806023	-3.558885806966843	5.000033049795526
O	-2.275338888619398	-3.5516326469668433	5.000024989795526
H	-3.357536188619398	1.2642068530331567	4.999983229795526
H	-3.361578948619398	-1.2534461169668434	5.000012559795526
H	3.361579291380602	1.2534334730331567	4.999987039795527
H	3.357536931380602	-1.2642193269668434	5.0000139897955265
H	0.007198881380602024	4.507775993033157	5.000003409795527
H	-0.0071976586193978785	-4.507788776966843	4.999997679795526
