52
132b TL90.0
C	-2.4307380686677527	-0.6986837563577525	-0.00012048020036662509
C	-2.4284844086677526	0.7064666936422476	0.0001339897996333749
C	-1.235894218667752	1.4040280736422475	-0.0001891702003666251
C	0.001139311332247761	0.7105561536422476	0.0002193097996333749
C	-0.0011394286677521848	-0.7105560163577525	-0.0002047202003666251
C	-1.2403868886677523	-1.4000643863577524	0.00015435979963337489
C	1.2403867713322478	1.4000642636422476	-0.0001844902003666251
C	2.4307379313322475	0.6986838136422475	0.0001377397996333749
C	2.4284844113322475	-0.7064666163577524	-0.0001339202003666251
C	1.2358941513322477	-1.4040278563577526	0.0001761597996333749
C	-1.2521514586677527	2.8919852436422473	0.0001320997996333749
N	0.005587381332247787	3.4945814836422473	-6.302020036662508e-05
C	1.2613981813322477	2.8879664836422476	0.00011242979963337491
O	2.2753392613322476	3.5516262536422474	-3.6650200366625096e-05
O	-2.263969378667752	3.5588789436422474	-4.3980200366625095e-05
C	-1.2613979486677525	-2.8879667163577527	-7.641020036662509e-05
N	-0.005586868667752487	-3.4945815663577524	4.5089799633374904e-05
C	1.2521515313322475	-2.8919847163577526	-0.00010572020036662509
O	2.263968951332248	-3.5588794063577525	3.3049799633374904e-05
O	-2.2753392086677526	-3.5516262463577526	2.4989799633374907e-05
H	-3.3575365086677524	1.2642132536422475	-1.6770200366625093e-05
H	-3.3615792686677524	-1.2534397163577526	1.2559799633374906e-05
H	3.3615789713322477	1.2534398736422474	-1.2960200366625094e-05
H	3.3575366113322476	-1.2642129263577526	1.3989799633374905e-05
H	0.0071985613322476105	4.507782393642247	3.4097996333749063e-06
H	-0.007197978667752292	-4.507782376357753	-2.320200366625094e-06
C	-0.0012426278290119741	-0.7025797188409144	8.65918749870246
C	0.0012569454382586449	0.7025703382641861	8.659182539523472
C	0.00205137321680586	1.4020389808891336	7.467710201844982
C	0.0013550117353629515	0.7105478350388982	6.229568475175506
C	-0.0013396244301347778	-0.7105636704719345	6.22957297037667
C	-0.002085384750767887	-1.4020540477980172	7.467715405745853
C	0.0020560516976594555	1.4020380238177121	4.991426039390238
C	0.001260685002959882	0.7025637991100427	3.7999539667216653
C	-0.0012560782100557032	-0.7025862103054771	3.7999587859328385
C	-0.0020635857483993656	-1.4020546921440347	4.991431193835283
C	0.004750004606213239	2.889965816105693	7.486348636658471
N	0.00552090698679198	3.4945736158789904	6.229575757279978
C	0.004730340614983121	2.8899695899709004	4.972795783989154
O	0.005644224626685371	3.555250534800652	3.959918073939559
O	0.0056368759505111485	3.555238856392156	8.499232507921217
C	-0.00469352392738629	-2.889985829082989	7.48634531097135
N	-0.0055380399899514245	-3.4945896183439316	6.229565057920934
C	-0.004722826692420642	-2.8899812800733184	4.972792619518075
O	-0.005647009572159173	-3.555255251544786	3.9599092466703665
O	-0.005655087495225516	-3.55526645801996	8.499223201404792
H	0.001994957082639169	1.2588289292524686	9.589126025830765
H	-0.0019983368267340994	-1.2588241198261372	9.589139716694923
H	0.001998734182590943	1.2588083280554938	2.8700019088890283
H	-0.0019969394511018864	-1.2588445465807359	2.8700152000257537
H	0.007206196258151566	4.507774407446633	6.2295860304797035
H	-0.007204309125633352	-4.507790340189305	6.22955471488133
