52
132b PD long
C	-2.4307380686677527	-0.6986837563577525	-0.00012048020036662509
C	-2.4284844086677526	0.7064666936422476	0.0001339897996333749
C	-1.235894218667752	1.4040280736422475	-0.0001891702003666251
C	0.001139311332247761	0.7105561536422476	0.0002193097996333749
C	-0.0011394286677521848	-0.7105560163577525	-0.0002047202003666251
C	-1.2403868886677523	-1.4000643863577524	0.00015435979963337489
C	1.2403867713322478	1.4000642636422476	-0.0001844902003666251
C	2.4307379313322475	0.6986838136422475	0.0001377397996333749
C	2.4284844113322475	-0.7064666163577524	-0.0001339202003666251
C	1.2358941513322477	-1.4040278563577526	0.0001761597996333749
C	-1.2521514586677527	2.8919852436422473	0.0001320997996333749
N	0.005587381332247787	3.4945814836422473	-6.302020036662508e-05
C	1.2613981813322477	2.8879664836422476	0.00011242979963337491
O	2.2753392613322476	3.5516262536422474	-3.6650200366625096e-05
O	-2.263969378667752	3.5588789436422474	-4.3980200366625095e-05
C	-1.2613979486677525	-2.8879667163577527	-7.641020036662509e-05
N	-0.005586868667752487	-3.4945815663577524	4.5089799633374904e-05
C	1.2521515313322475	-2.8919847163577526	-0.00010572020036662509
O	2.263968951332248	-3.5588794063577525	3.3049799633374904e-05
O	-2.2753392086677526	-3.5516262463577526	2.4989799633374907e-05
H	-3.3575365086677524	1.2642132536422475	-1.6770200366625093e-05
H	-3.3615792686677524	-1.2534397163577526	1.2559799633374906e-05
H	3.3615789713322477	1.2534398736422474	-1.2960200366625094e-05
H	3.3575366113322476	-1.2642129263577526	1.3989799633374905e-05
H	0.0071985613322476105	4.507782393642247	3.4097996333749063e-06
H	-0.007197978667752292	-4.507782376357753	-2.320200366625094e-06
C	-2.4262542908049856	2.1052022492018567	3.499883108831155
C	-2.4240006308049855	3.5103526992018566	3.5001375788311546
C	-1.2314104408049846	4.207914079201857	3.499814418831155
C	0.005623089195015058	3.5144421592018564	3.500222898831155
C	0.0033443491950151125	2.0933299892018566	3.4997988688311548
C	-1.235903110804985	1.4038216192018569	3.5001579488311547
C	1.2448705491950152	4.203950269201857	3.499819098831155
C	2.4352217091950146	3.5025698192018564	3.500141328831155
C	2.4329681891950146	2.0974193892018564	3.499869668831155
C	1.240377929195015	1.3998581492018567	3.5001797488311546
C	-1.2476676808049854	5.695871249201857	3.5001356888311546
N	0.010071159195015085	6.298467489201857	3.4999405688311547
C	1.265881959195015	5.691852489201858	3.5001160188311546
O	2.2798230391950147	6.3555122592018565	3.4999669388311547
O	-2.259485600804985	6.362764949201857	3.499959608831155
C	-1.2569141708049851	-0.0840807107981434	3.499927178831155
N	-0.0011030908049851895	-0.6906955607981431	3.500048678831155
C	1.2566353091950149	-0.08809871079814326	3.499897868831155
O	2.268452729195015	-0.7549934007981431	3.500036638831155
O	-2.2708554308049855	-0.7477402407981433	3.500028578831155
H	-3.3530527308049853	4.068099259201857	3.4999868188311547
H	-3.3570954908049853	1.5504462892018567	3.500016148831155
H	3.366062749195015	4.057325879201857	3.4999906288311546
H	3.3620203891950147	1.5396730792018567	3.5000175788311547
H	0.011682339195014909	7.311668399201857	3.5000069988311546
H	-0.0027142008049849944	-1.7038963707981434	3.500001268831155
