60
129i_F TL45.0
C	-5.1278471859548675	0.2979658494799128	4.429808979747326e-05
C	-5.178667775954867	1.6882525694799126	-3.872191020252674e-05
C	-4.036100565954867	2.484121939479913	3.432808979747326e-05
C	-2.8188292859548674	1.8253096994799127	-3.9621910202526745e-05
C	-2.7390784559548673	0.42064027947991267	5.392808979747326e-05
C	-3.8909535159548674	-0.35308021052008726	-4.2671910202526744e-05
C	-1.3176456759548674	0.03564654947991275	-4.8781910202526745e-05
C	-0.5211172359548675	1.1997529594799128	7.948089797473254e-06
C	-1.4350069159548675	2.408788389479913	6.028089797473255e-06
O	-1.1221942259548674	3.571806089479913	1.2228089797473255e-05
N	0.8076111740451325	1.1991488794799128	-1.7011910202526743e-05
C	1.3176405940451326	-0.03566021052008725	5.5480897974732555e-06
C	0.5211141940451326	-1.1997673205200872	3.467808979747326e-05
N	-0.8076152259548675	-1.1991627905200872	1.0708089797473254e-05
C	1.4350101940451325	-2.408800510520087	-5.223191020252674e-05
C	2.739072984045132	-0.42064723052008723	-4.290191020252675e-05
C	2.8188320040451322	-1.8253156105200872	7.110808979747325e-05
O	1.1222027840451325	-3.571819310520087	8.278089797473254e-06
C	3.890939834045132	0.3530844694799128	2.9478089797473258e-05
C	5.127839114045132	-0.29794989052008725	-3.845191020252674e-05
C	5.178670244045132	-1.6882363105200873	4.238808979747326e-05
C	4.036110044045133	-2.484116610520087	-4.138191020252674e-05
H	-4.106433105954867	3.565770419479913	1.798089797473255e-06
F	-6.384970415954868	2.2876586794799127	-3.891910202526745e-06
H	-6.0575063459548675	-0.2592119305200873	-1.121910202526745e-06
H	-3.8334783759548676	-1.4354234505200874	8.828089797473254e-06
H	4.106456174045133	-3.565764270520087	3.228089797473255e-06
F	6.384978134045133	-2.287631980520087	8.80897974732549e-08
H	6.057493624045132	0.2592356794799128	8.780897974732549e-07
H	3.833450454045132	1.4354269494799128	-6.51910202526745e-07
C	-4.966457299405057	0.7214904511367897	-6.059011903576011
C	-5.150866100756413	1.761212683358955	-5.153224413666959
C	-4.1283155454248215	2.2421322787994376	-4.339606202636687
C	-2.8920259017652223	1.6332283565757375	-4.4684738581437
C	-2.67836220992975	0.5799753777624723	-5.376472961960794
C	-3.712027622073166	0.11646268386459721	-6.177816432740535
C	-1.272172279025482	0.15498110023013678	-5.273026971050548
C	-0.6186931651302038	0.9436950021178399	-4.303234868885383
C	-1.6164736876772257	1.9325826365708034	-3.734467523249851
O	-1.4286269876886266	2.7676624307957223	-2.887226527925955
N	0.6607533387790435	0.8137644943600003	-3.969087805655777
C	1.2721790797536205	-0.15495862173519936	-4.656559685908063
C	0.6186803794038931	-0.9437299760518486	-5.626291024758554
N	-0.6607548206398052	-0.8137667040845595	-5.960472643692506
C	1.616489135663536	-1.9325578642509824	-6.19511811126389
C	2.6783543189223726	-0.5799837200743061	-4.553070991899833
C	2.892020643558459	-1.6332502421655946	-5.461052878943673
O	1.428630829703758	-2.7676830708660294	-7.042311332863253
C	3.7120168318704208	-0.11644587949552093	-3.7517393073707863
C	4.966445976448649	-0.7214780666687878	-3.8705212298029497
C	5.150865446029612	-1.761199662390782	-4.7763074090844535
C	4.128325404804771	-2.242120992304614	-5.589938657313867
H	-4.3014446642410205	3.0540202041120805	-3.6426310190922355
F	-6.3707949276357185	2.3248607188279595	-5.060875647295965
H	-5.807276601595365	0.39744775782457475	-6.661284656019438
H	-3.551215463502069	-0.694701770105482	-6.878474667413542
H	4.301464487336472	-3.0540176137635053	-6.286901335326989
F	6.37080019134604	-2.324835503743023	-4.868653237323666
H	5.8072615755414825	-0.3974250984847154	-3.268248807173733
H	3.551185655413571	0.6947052762857153	-3.051070049526958
