60
129i_F TS45.0
C	-5.1278471859548675	0.2979658494799128	4.429808979747326e-05
C	-5.178667775954867	1.6882525694799126	-3.872191020252674e-05
C	-4.036100565954867	2.484121939479913	3.432808979747326e-05
C	-2.8188292859548674	1.8253096994799127	-3.9621910202526745e-05
C	-2.7390784559548673	0.42064027947991267	5.392808979747326e-05
C	-3.8909535159548674	-0.35308021052008726	-4.2671910202526744e-05
C	-1.3176456759548674	0.03564654947991275	-4.8781910202526745e-05
C	-0.5211172359548675	1.1997529594799128	7.948089797473254e-06
C	-1.4350069159548675	2.408788389479913	6.028089797473255e-06
O	-1.1221942259548674	3.571806089479913	1.2228089797473255e-05
N	0.8076111740451325	1.1991488794799128	-1.7011910202526743e-05
C	1.3176405940451326	-0.03566021052008725	5.5480897974732555e-06
C	0.5211141940451326	-1.1997673205200872	3.467808979747326e-05
N	-0.8076152259548675	-1.1991627905200872	1.0708089797473254e-05
C	1.4350101940451325	-2.408800510520087	-5.223191020252674e-05
C	2.739072984045132	-0.42064723052008723	-4.290191020252675e-05
C	2.8188320040451322	-1.8253156105200872	7.110808979747325e-05
O	1.1222027840451325	-3.571819310520087	8.278089797473254e-06
C	3.890939834045132	0.3530844694799128	2.9478089797473258e-05
C	5.127839114045132	-0.29794989052008725	-3.845191020252674e-05
C	5.178670244045132	-1.6882363105200873	4.238808979747326e-05
C	4.036110044045133	-2.484116610520087	-4.138191020252674e-05
H	-4.106433105954867	3.565770419479913	1.798089797473255e-06
F	-6.384970415954868	2.2876586794799127	-3.891910202526745e-06
H	-6.0575063459548675	-0.2592119305200873	-1.121910202526745e-06
H	-3.8334783759548676	-1.4354234505200874	8.828089797473254e-06
H	4.106456174045133	-3.565764270520087	3.228089797473255e-06
F	6.384978134045133	-2.287631980520087	8.80897974732549e-08
H	6.057493624045132	0.2592356794799128	8.780897974732549e-07
H	3.833450454045132	1.4354269494799128	-6.51910202526745e-07
C	-3.7873655855268153	-0.2128481960720439	4.134048941852489
C	-3.6896367102633825	1.1208314293056016	3.750346417934659
C	-2.761769415977424	1.9985155565504986	4.304964075230657
C	-1.9199797510856595	1.4827864521838814	5.275116946249383
C	-1.9975861221469284	0.13808045214472175	5.681564246338597
C	-2.9302065551479997	-0.7191904390107724	5.115202783177692
C	-0.9771449223758986	-0.09410917148350426	6.717652595484764
C	-0.27091629545158824	1.1044073931047775	6.950891665261507
C	-0.8332408665735116	2.1794734457723366	6.042604773732287
O	-0.48708815195969296	3.3297864085173465	5.956463404559006
N	0.717941256743929	1.2333164133447077	7.828993458360375
C	0.9771691768631557	0.09407915322680756	8.476930838907938
C	0.27088526733927487	-1.1044162676308227	8.243754005519577
N	-0.7179406618230771	-1.2333372732312238	7.365616833014159
C	0.8332734554896255	-2.1795019142867735	9.151981696726054
C	1.997574887631971	-0.1380903853412821	9.513055608445113
C	1.9199611941999395	-1.482789434135264	9.9195225256793
O	0.4870804841532167	-3.3297986245067412	9.238174002764334
C	2.9302063064490973	0.7191844009320956	10.079391698066607
C	3.787358071500816	0.21285876435088905	11.060559763582894
C	3.689638510272573	-1.120820093855198	11.444267634854864
C	2.761782451231641	-1.99851676120303	10.889649781376379
H	-2.708675388356058	3.033130414610683	3.986117370308983
F	-4.529026874095201	1.5804198079165561	2.8023715130465705
H	-4.533532487038419	-0.8399485679470112	3.6600306795002227
H	-2.9929498885718657	-1.7557225514728718	5.4257422130246695
H	2.7086906358710072	-3.033126463589675	11.208513801373359
F	4.529038534730782	-1.5803997894224628	12.392238097919062
H	4.533526295496203	0.8399646503134498	11.534568685668855
H	2.992924847362244	1.7557197746078343	9.768858161266193
