60
129i_F cofacial 4.5A
C	-5.1278471859548675	0.2979658494799128	4.429808979747326e-05
C	-5.178667775954867	1.6882525694799126	-3.872191020252674e-05
C	-4.036100565954867	2.484121939479913	3.432808979747326e-05
C	-2.8188292859548674	1.8253096994799127	-3.9621910202526745e-05
C	-2.7390784559548673	0.42064027947991267	5.392808979747326e-05
C	-3.8909535159548674	-0.35308021052008726	-4.2671910202526744e-05
C	-1.3176456759548674	0.03564654947991275	-4.8781910202526745e-05
C	-0.5211172359548675	1.1997529594799128	7.948089797473254e-06
C	-1.4350069159548675	2.408788389479913	6.028089797473255e-06
O	-1.1221942259548674	3.571806089479913	1.2228089797473255e-05
N	0.8076111740451325	1.1991488794799128	-1.7011910202526743e-05
C	1.3176405940451326	-0.03566021052008725	5.5480897974732555e-06
C	0.5211141940451326	-1.1997673205200872	3.467808979747326e-05
N	-0.8076152259548675	-1.1991627905200872	1.0708089797473254e-05
C	1.4350101940451325	-2.408800510520087	-5.223191020252674e-05
C	2.739072984045132	-0.42064723052008723	-4.290191020252675e-05
C	2.8188320040451322	-1.8253156105200872	7.110808979747325e-05
O	1.1222027840451325	-3.571819310520087	8.278089797473254e-06
C	3.890939834045132	0.3530844694799128	2.9478089797473258e-05
C	5.127839114045132	-0.29794989052008725	-3.845191020252674e-05
C	5.178670244045132	-1.6882363105200873	4.238808979747326e-05
C	4.036110044045133	-2.484116610520087	-4.138191020252674e-05
H	-4.106433105954867	3.565770419479913	1.798089797473255e-06
F	-6.384970415954868	2.2876586794799127	-3.891910202526745e-06
H	-6.0575063459548675	-0.2592119305200873	-1.121910202526745e-06
H	-3.8334783759548676	-1.4354234505200874	8.828089797473254e-06
H	4.106456174045133	-3.565764270520087	3.228089797473255e-06
F	6.384978134045133	-2.287631980520087	8.80897974732549e-08
H	6.057493624045132	0.2592356794799128	8.780897974732549e-07
H	3.833450454045132	1.4354269494799128	-6.51910202526745e-07
C	-5.127846948730918	0.2979642255500697	4.500044298089497
C	-5.178667538730918	1.6882509455500696	4.499961278089497
C	-4.036100328730917	2.48412031555007	4.500034328089497
C	-2.8188290487309176	1.8253080755500697	4.499960378089497
C	-2.7390782187309175	0.4206386555500696	4.500053928089497
C	-3.8909532787309176	-0.35308183444993035	4.499957328089497
C	-1.3176454387309176	0.035644925550069644	4.499951218089497
C	-0.5211169987309175	1.1997513355500697	4.500007948089498
C	-1.4350066787309177	2.40878676555007	4.500006028089497
O	-1.1221939887309176	3.57180446555007	4.500012228089497
N	0.8076114112690824	1.1991472555500697	4.4999829880894975
C	1.3176408312690824	-0.03566183444993035	4.500005548089497
C	0.5211144312690825	-1.1997689444499302	4.500034678089497
N	-0.8076149887309175	-1.1991644144499303	4.500010708089497
C	1.4350104312690823	-2.40880213444993	4.4999477680894975
C	2.739073221269082	-0.42064885444993033	4.499957098089498
C	2.818832241269082	-1.8253172344499302	4.5000711080894975
O	1.1222030212690823	-3.57182093444993	4.500008278089497
C	3.890940071269082	0.3530828455500697	4.500029478089497
C	5.127839351269082	-0.29795151444993034	4.499961548089497
C	5.178670481269082	-1.6882379344499303	4.500042388089497
C	4.0361102812690826	-2.48411823444993	4.499958618089497
H	-4.106432868730917	3.56576879555007	4.500001798089497
F	-6.384970178730918	2.2876570555500697	4.499996108089498
H	-6.057506108730918	-0.2592135544499304	4.499998878089497
H	-3.833478138730918	-1.4354250744499304	4.500008828089498
H	4.1064564112690825	-3.56576589444993	4.500003228089497
F	6.384978371269082	-2.28763360444993	4.5000000880894975
H	6.057493861269082	0.2592340555500697	4.500000878089497
H	3.833450691269082	1.4354253255500697	4.4999993480894975
