60
129i_F PD long+short
C	-5.1278471859548675	0.2979658494799128	4.429808979747326e-05
C	-5.178667775954867	1.6882525694799126	-3.872191020252674e-05
C	-4.036100565954867	2.484121939479913	3.432808979747326e-05
C	-2.8188292859548674	1.8253096994799127	-3.9621910202526745e-05
C	-2.7390784559548673	0.42064027947991267	5.392808979747326e-05
C	-3.8909535159548674	-0.35308021052008726	-4.2671910202526744e-05
C	-1.3176456759548674	0.03564654947991275	-4.8781910202526745e-05
C	-0.5211172359548675	1.1997529594799128	7.948089797473254e-06
C	-1.4350069159548675	2.408788389479913	6.028089797473255e-06
O	-1.1221942259548674	3.571806089479913	1.2228089797473255e-05
N	0.8076111740451325	1.1991488794799128	-1.7011910202526743e-05
C	1.3176405940451326	-0.03566021052008725	5.5480897974732555e-06
C	0.5211141940451326	-1.1997673205200872	3.467808979747326e-05
N	-0.8076152259548675	-1.1991627905200872	1.0708089797473254e-05
C	1.4350101940451325	-2.408800510520087	-5.223191020252674e-05
C	2.739072984045132	-0.42064723052008723	-4.290191020252675e-05
C	2.8188320040451322	-1.8253156105200872	7.110808979747325e-05
O	1.1222027840451325	-3.571819310520087	8.278089797473254e-06
C	3.890939834045132	0.3530844694799128	2.9478089797473258e-05
C	5.127839114045132	-0.29794989052008725	-3.845191020252674e-05
C	5.178670244045132	-1.6882363105200873	4.238808979747326e-05
C	4.036110044045133	-2.484116610520087	-4.138191020252674e-05
H	-4.106433105954867	3.565770419479913	1.798089797473255e-06
F	-6.384970415954868	2.2876586794799127	-3.891910202526745e-06
H	-6.0575063459548675	-0.2592119305200873	-1.121910202526745e-06
H	-3.8334783759548676	-1.4354234505200874	8.828089797473254e-06
H	4.106456174045133	-3.565764270520087	3.228089797473255e-06
F	6.384978134045133	-2.287631980520087	8.80897974732549e-08
H	6.057493624045132	0.2592356794799128	8.780897974732549e-07
H	3.833450454045132	1.4354269494799128	-6.51910202526745e-07
C	-2.0818301201707885	-3.2802781780066974	3.5000428462221493
C	-2.1326507101707883	-1.8899914580066974	3.4999598262221494
C	-0.990083500170788	-1.094122088006697	3.5000328762221495
C	0.22718777982921187	-1.7529343280066974	3.4999589262221495
C	0.30693860982921195	-3.1576037480066974	3.5000524762221494
C	-0.8449364501707881	-3.9313242380066975	3.4999558762221494
C	1.728371389829212	-3.542597478006697	3.4999497662221493
C	2.5248998298292116	-2.3784910680066975	3.5000064962221495
C	1.6110101498292118	-1.169455638006697	3.500004576222149
O	1.9238228398292119	-0.00643793800669718	3.5000107762221493
N	3.8536282398292117	-2.379095148006697	3.4999815362221494
C	4.363657659829212	-3.6139042380066972	3.5000040962221495
C	3.5671312598292118	-4.7780113480066975	3.5000332262221496
N	2.2384018398292116	-4.777406818006697	3.5000092562221496
C	4.481027259829212	-5.987044538006697	3.4999463162221494
C	5.785090049829211	-3.9988912580066973	3.4999556462221495
C	5.864849069829212	-5.403559638006698	3.5000696562221494
O	4.168219849829212	-7.150063338006698	3.5000068262221493
C	6.9369568998292115	-3.2251595580066974	3.5000280262221493
C	8.173856179829212	-3.876193918006697	3.4999600962221495
C	8.22468730982921	-5.266480338006698	3.5000409362221494
C	7.082127109829212	-6.062360638006697	3.4999571662221496
H	-1.0604160401707878	-0.012473608006696895	3.5000003462221496
F	-3.338953350170789	-1.2905853480066973	3.4999946562221496
H	-3.0114892801707884	-3.8374559580066974	3.4999974262221496
H	-0.7874613101707884	-5.013667478006697	3.5000073762221495
H	7.152473239829212	-7.144008298006697	3.5000017762221494
F	9.430995199829212	-5.865876008006698	3.4999986362221494
H	9.10351068982921	-3.3190083480066974	3.4999994262221494
H	6.879467519829212	-2.142817078006697	3.4999978962221494
