64
139a_H_capped cofacial 4.0A
C	-3.669333008429517	-0.4152578712939179	-1.4405874974705318e-05
C	-3.553038598429517	1.002915308706082	2.2424125025294683e-05
C	-2.3438072684295173	1.6249749387060823	4.404125025294684e-06
C	-1.159916078429517	0.8201815287060821	1.0984125025294684e-05
C	-1.277810778429517	-0.6240078712939179	-1.2935874974705317e-05
C	-2.577055678429517	-1.2257445012939179	5.234125025294684e-06
C	0.11364770157048287	1.3964567387060822	-8.575874974705318e-06
C	1.2774557915704827	0.6220456387060822	1.2084125025294684e-05
C	1.159907211570483	-0.8221704912939178	-9.455874974705316e-06
C	-0.11383799842951703	-1.398514911293918	9.084125025294682e-06
C	2.576095151570483	1.2246879187060822	1.8541250252946836e-06
C	3.6688329815704828	0.41503720870608213	-2.8665874974705317e-05
C	3.553481001570483	-1.003221891293918	6.874125025294684e-06
C	2.344549191570483	-1.6261596112939178	-1.8275874974705317e-05
C	-4.927086698429517	1.585440738706082	-1.4595874974705318e-05
N	-5.7807617484295175	0.47265910870608213	4.674125025294684e-06
C	-5.120583638429517	-0.765163131293918	4.734125025294683e-06
C	5.119590451570483	0.7663835787060822	2.2594125025294683e-05
N	5.7809058215704825	-0.47071528129391793	2.0041250252946837e-06
C	4.928278751570483	-1.5844038412939179	-1.3425874974705317e-05
O	5.645871451570483	1.8505834487060822	-9.985874974705316e-06
O	-5.269808338429517	2.740911268706082	1.0841250252946836e-06
O	-5.648038008429517	-1.8487726012939178	-8.358749747053165e-07
O	5.272337471570483	-2.739457721293918	1.8254125025294684e-05
H	-6.786915008429517	0.5563296187060822	1.4241250252946837e-06
H	6.787159231570484	-0.5531374712939179	8.444125025294685e-06
H	-2.270455078429517	2.7076964087060817	2.5141250252946834e-06
H	0.20128749157048276	2.4789827587060818	-2.2458749747053163e-06
H	2.678299181570483	2.305095268706082	1.3041250252946836e-06
H	2.272173241570483	-2.708961471293918	-8.958749747053163e-07
H	-0.20150068842951696	-2.481060151293918	4.341250252946836e-07
H	-2.680280318429517	-2.306072181293918	1.4412502529468362e-07
C	-3.669333256324311	-0.4152560711379676	3.9999855941246123
C	-3.553038846324311	1.0029171088620323	4.000022424124612
C	-2.3438075163243113	1.6249767388620326	4.0000044041246126
C	-1.159916326324311	0.8201833288620324	4.0000109841246125
C	-1.277811026324311	-0.6240060711379676	3.9999870641246122
C	-2.577055926324311	-1.2257427011379676	4.000005234124612
C	0.11364745367568876	1.3964585388620325	3.9999914241246124
C	1.2774555436756887	0.6220474388620325	4.000012084124612
C	1.159906963675689	-0.8221686911379675	3.9999905441246124
C	-0.11383824632431114	-1.3985131111379676	4.0000090841246125
C	2.576094903675689	1.2246897188620325	4.000001854124612
C	3.6688327336756887	0.41503900886203243	3.9999713341246124
C	3.553480753675689	-1.0032200911379676	4.000006874124613
C	2.344548943675689	-1.6261578111379675	3.9999817241246123
C	-4.927086946324311	1.5854425388620323	3.999985404124612
N	-5.780761996324312	0.47266090886203244	4.000004674124613
C	-5.120583886324312	-0.7651613311379677	4.000004734124612
C	5.119590203675688	0.7663853788620325	4.000022594124612
N	5.780905573675688	-0.4707134811379676	4.000002004124612
C	4.928278503675688	-1.5844020411379676	3.999986574124612
O	5.645871203675688	1.8505852488620325	3.999990014124612
O	-5.269808586324311	2.7409130688620325	4.000001084124612
O	-5.648038256324312	-1.8487708011379675	3.9999991641246124
O	5.272337223675689	-2.7394559211379677	4.000018254124612
H	-6.786915256324312	0.5563314188620325	4.000001424124612
H	6.787158983675689	-0.5531356711379676	4.000008444124612
H	-2.2704553263243112	2.7076982088620323	4.0000025141246125
H	0.20128724367568865	2.4789845588620323	3.999997754124612
H	2.678298933675689	2.3050970688620325	4.000001304124612
H	2.272172993675689	-2.7089596711379675	3.9999991041246123
H	-0.20150093632431107	-2.4810583511379676	4.000000434124613
H	-2.680280566324311	-2.3060703811379675	4.000000144124613
