64
139a_H_capped TL45.0
C	-3.669333008429517	-0.4152578712939179	-1.4405874974705318e-05
C	-3.553038598429517	1.002915308706082	2.2424125025294683e-05
C	-2.3438072684295173	1.6249749387060823	4.404125025294684e-06
C	-1.159916078429517	0.8201815287060821	1.0984125025294684e-05
C	-1.277810778429517	-0.6240078712939179	-1.2935874974705317e-05
C	-2.577055678429517	-1.2257445012939179	5.234125025294684e-06
C	0.11364770157048287	1.3964567387060822	-8.575874974705318e-06
C	1.2774557915704827	0.6220456387060822	1.2084125025294684e-05
C	1.159907211570483	-0.8221704912939178	-9.455874974705316e-06
C	-0.11383799842951703	-1.398514911293918	9.084125025294682e-06
C	2.576095151570483	1.2246879187060822	1.8541250252946836e-06
C	3.6688329815704828	0.41503720870608213	-2.8665874974705317e-05
C	3.553481001570483	-1.003221891293918	6.874125025294684e-06
C	2.344549191570483	-1.6261596112939178	-1.8275874974705317e-05
C	-4.927086698429517	1.585440738706082	-1.4595874974705318e-05
N	-5.7807617484295175	0.47265910870608213	4.674125025294684e-06
C	-5.120583638429517	-0.765163131293918	4.734125025294683e-06
C	5.119590451570483	0.7663835787060822	2.2594125025294683e-05
N	5.7809058215704825	-0.47071528129391793	2.0041250252946837e-06
C	4.928278751570483	-1.5844038412939179	-1.3425874974705317e-05
O	5.645871451570483	1.8505834487060822	-9.985874974705316e-06
O	-5.269808338429517	2.740911268706082	1.0841250252946836e-06
O	-5.648038008429517	-1.8487726012939178	-8.358749747053165e-07
O	5.272337471570483	-2.739457721293918	1.8254125025294684e-05
H	-6.786915008429517	0.5563296187060822	1.4241250252946837e-06
H	6.787159231570484	-0.5531374712939179	8.444125025294685e-06
H	-2.270455078429517	2.7076964087060817	2.5141250252946834e-06
H	0.20128749157048276	2.4789827587060818	-2.2458749747053163e-06
H	2.678299181570483	2.305095268706082	1.3041250252946836e-06
H	2.272173241570483	-2.708961471293918	-8.958749747053163e-07
H	-0.20150068842951696	-2.481060151293918	4.341250252946836e-07
H	-2.680280318429517	-2.306072181293918	1.4412502529468362e-07
C	-3.6523938496554065	-0.2074163119343794	-4.830445142290647
C	-3.569955152971533	0.7953406322482773	-3.824253345560255
C	-2.377810451651981	1.207743980605272	-3.316401908195269
C	-1.1771236544992243	0.609035961112012	-3.815591957294662
C	-1.2605433727032886	-0.4121386575215567	-4.840201996678406
C	-2.5430096129013546	-0.8079978443585544	-5.338900431946557
C	0.08031493686832718	0.9874519472363547	-3.336314010633067
C	1.2602361871406988	0.4107524807750765	-3.8152350804540287
C	1.1771624171876434	-0.6104509752580289	-4.839842395188797
C	-0.0804555538100993	-0.9889110129406161	-5.31918026111181
C	2.5420761260215596	0.8072625721629783	-3.3159275363422553
C	3.6519030318964956	0.20729817147989163	-3.8238027130905725
C	3.5704028245893578	-0.7955930450975005	-4.8299497596034735
C	2.3785803659769087	-1.2085956712817754	-5.338433370718981
C	-4.955159029957141	1.2409824929762496	-3.492654777662678
N	-5.780798258562065	0.47220588449672063	-4.32592930497806
C	-5.092543744643959	-0.42111337842705654	-5.16039048042151
C	5.091522503596243	0.4219791199475193	-3.492820269192797
N	5.780896112430319	-0.4708396520663938	-4.326720908488713
C	4.956326337485342	-1.2402597044470636	-5.1605989563179255
O	5.591078902678866	1.1782629006275933	-2.6985033945474646
O	-5.324618686176416	2.0683723251565436	-2.697987616833924
O	-5.593283054941217	-1.1769238315877504	-5.954385630251064
O	5.327107889571568	-2.067419199029526	-5.954862187664644
H	-6.786990961182288	0.5553924258262322	-4.324753975962338
H	6.787158987121337	-0.5531457084685436	-4.327008450821627
H	-2.3302742647431853	1.9736980345593558	-2.5491203278443497
H	0.14211527493294873	1.7529228292582089	-2.568343722275415
H	2.618463192855412	1.5708907258061635	-2.5486187558199767
H	2.332019549011163	-1.9746407910426227	-6.10570458174804
H	-0.142278158604864	-1.7543933446116333	-6.087167050956147
H	-2.6204168826162313	-1.5715413325584824	-6.106215672721817
