64
139a_H_capped PD short
C	-3.669333008429517	-0.4152578712939179	-1.4405874974705318e-05
C	-3.553038598429517	1.002915308706082	2.2424125025294683e-05
C	-2.3438072684295173	1.6249749387060823	4.404125025294684e-06
C	-1.159916078429517	0.8201815287060821	1.0984125025294684e-05
C	-1.277810778429517	-0.6240078712939179	-1.2935874974705317e-05
C	-2.577055678429517	-1.2257445012939179	5.234125025294684e-06
C	0.11364770157048287	1.3964567387060822	-8.575874974705318e-06
C	1.2774557915704827	0.6220456387060822	1.2084125025294684e-05
C	1.159907211570483	-0.8221704912939178	-9.455874974705316e-06
C	-0.11383799842951703	-1.398514911293918	9.084125025294682e-06
C	2.576095151570483	1.2246879187060822	1.8541250252946836e-06
C	3.6688329815704828	0.41503720870608213	-2.8665874974705317e-05
C	3.553481001570483	-1.003221891293918	6.874125025294684e-06
C	2.344549191570483	-1.6261596112939178	-1.8275874974705317e-05
C	-4.927086698429517	1.585440738706082	-1.4595874974705318e-05
N	-5.7807617484295175	0.47265910870608213	4.674125025294684e-06
C	-5.120583638429517	-0.765163131293918	4.734125025294683e-06
C	5.119590451570483	0.7663835787060822	2.2594125025294683e-05
N	5.7809058215704825	-0.47071528129391793	2.0041250252946837e-06
C	4.928278751570483	-1.5844038412939179	-1.3425874974705317e-05
O	5.645871451570483	1.8505834487060822	-9.985874974705316e-06
O	-5.269808338429517	2.740911268706082	1.0841250252946836e-06
O	-5.648038008429517	-1.8487726012939178	-8.358749747053165e-07
O	5.272337471570483	-2.739457721293918	1.8254125025294684e-05
H	-6.786915008429517	0.5563296187060822	1.4241250252946837e-06
H	6.787159231570484	-0.5531374712939179	8.444125025294685e-06
H	-2.270455078429517	2.7076964087060817	2.5141250252946834e-06
H	0.20128749157048276	2.4789827587060818	-2.2458749747053163e-06
H	2.678299181570483	2.305095268706082	1.3041250252946836e-06
H	2.272173241570483	-2.708961471293918	-8.958749747053163e-07
H	-0.20150068842951696	-2.481060151293918	4.341250252946836e-07
H	-2.680280318429517	-2.306072181293918	1.4412502529468362e-07
C	-3.816201592595862	-2.2173652221007005	3.4999863960419644
C	-3.699907182595862	-0.7991920421007005	3.5000232260419644
C	-2.4906758525958623	-0.17713241210070016	3.5000052060419646
C	-1.3067846625958621	-0.9819258221007005	3.5000117860419646
C	-1.424679362595862	-2.4261152221007003	3.4999878660419643
C	-2.723924262595862	-3.0278518521007007	3.5000060360419645
C	-0.033220882595862054	-0.40565061210070025	3.4999922260419645
C	1.1305872074041377	-1.1800617121007002	3.5000128860419646
C	1.0130386274041379	-2.6242778421007005	3.4999913460419645
C	-0.26070658259586194	-3.2006222621007008	3.5000098860419646
C	2.429226567404138	-0.5774194321007003	3.5000026560419646
C	3.5219643974041377	-1.3870701421007003	3.4999721360419644
C	3.406612417404138	-2.8053292421007003	3.5000076760419643
C	2.1976806074041377	-3.4282669621007007	3.4999825260419644
C	-5.073955282595862	-0.21666661210070046	3.4999862060419646
N	-5.927630332595863	-1.3294482421007003	3.5000054760419643
C	-5.267452222595862	-2.567270482100701	3.5000055360419644
C	4.972721867404138	-1.0357237721007002	3.500023396041964
N	5.634037237404137	-2.272822632100701	3.5000028060419646
C	4.781410167404138	-3.3865111921007007	3.4999873760419646
O	5.499002867404138	0.04847609789929967	3.4999908160419646
O	-5.416676922595862	0.9388039178992994	3.5000018860419644
O	-5.794906592595862	-3.6508799521007007	3.4999999660419645
O	5.125468887404138	-4.541565072100701	3.5000190560419644
H	-6.933783592595862	-1.2457777321007002	3.5000022260419645
H	6.6402906474041385	-2.3552448221007007	3.5000092460419645
H	-2.4173236625958623	0.9055890578992992	3.5000033160419646
H	0.05441890740413783	0.6768754078992992	3.4999985560419646
H	2.531430597404138	0.5029879178992994	3.5000021060419644
H	2.125304657404138	-4.5110688221007	3.4999999060419644
H	-0.34836927259586187	-4.2831675021007	3.5000012360419643
H	-2.8271489025958623	-4.1081795321007	3.5000009460419643
