64
139a_H_capped cofacial 3.5A
C	-3.669333008429517	-0.4152578712939179	-1.4405874974705318e-05
C	-3.553038598429517	1.002915308706082	2.2424125025294683e-05
C	-2.3438072684295173	1.6249749387060823	4.404125025294684e-06
C	-1.159916078429517	0.8201815287060821	1.0984125025294684e-05
C	-1.277810778429517	-0.6240078712939179	-1.2935874974705317e-05
C	-2.577055678429517	-1.2257445012939179	5.234125025294684e-06
C	0.11364770157048287	1.3964567387060822	-8.575874974705318e-06
C	1.2774557915704827	0.6220456387060822	1.2084125025294684e-05
C	1.159907211570483	-0.8221704912939178	-9.455874974705316e-06
C	-0.11383799842951703	-1.398514911293918	9.084125025294682e-06
C	2.576095151570483	1.2246879187060822	1.8541250252946836e-06
C	3.6688329815704828	0.41503720870608213	-2.8665874974705317e-05
C	3.553481001570483	-1.003221891293918	6.874125025294684e-06
C	2.344549191570483	-1.6261596112939178	-1.8275874974705317e-05
C	-4.927086698429517	1.585440738706082	-1.4595874974705318e-05
N	-5.7807617484295175	0.47265910870608213	4.674125025294684e-06
C	-5.120583638429517	-0.765163131293918	4.734125025294683e-06
C	5.119590451570483	0.7663835787060822	2.2594125025294683e-05
N	5.7809058215704825	-0.47071528129391793	2.0041250252946837e-06
C	4.928278751570483	-1.5844038412939179	-1.3425874974705317e-05
O	5.645871451570483	1.8505834487060822	-9.985874974705316e-06
O	-5.269808338429517	2.740911268706082	1.0841250252946836e-06
O	-5.648038008429517	-1.8487726012939178	-8.358749747053165e-07
O	5.272337471570483	-2.739457721293918	1.8254125025294684e-05
H	-6.786915008429517	0.5563296187060822	1.4241250252946837e-06
H	6.787159231570484	-0.5531374712939179	8.444125025294685e-06
H	-2.270455078429517	2.7076964087060817	2.5141250252946834e-06
H	0.20128749157048276	2.4789827587060818	-2.2458749747053163e-06
H	2.678299181570483	2.305095268706082	1.3041250252946836e-06
H	2.272173241570483	-2.708961471293918	-8.958749747053163e-07
H	-0.20150068842951696	-2.481060151293918	4.341250252946836e-07
H	-2.680280318429517	-2.306072181293918	1.4412502529468362e-07
C	-3.669333225337462	-0.41525629615746135	3.499985594124664
C	-3.553038815337462	1.0029168838425386	3.500022424124664
C	-2.343807485337462	1.624976513842539	3.5000044041246636
C	-1.159916295337462	0.8201831038425386	3.5000109841246636
C	-1.277810995337462	-0.6240062961574614	3.4999870641246638
C	-2.577055895337462	-1.2257429261574613	3.500005234124664
C	0.11364748466253803	1.3964583138425388	3.499991424124664
C	1.2774555746625378	0.6220472138425387	3.500012084124664
C	1.159906994662538	-0.8221689161574613	3.499990544124664
C	-0.11383821533746187	-1.3985133361574613	3.5000090841246636
C	2.576094934662538	1.2246894938425388	3.500001854124664
C	3.668832764662538	0.41503878384253867	3.499971334124664
C	3.553480784662538	-1.0032203161574613	3.5000068741246637
C	2.344548974662538	-1.6261580361574612	3.499981724124664
C	-4.927086915337462	1.5854423138425386	3.4999854041246636
N	-5.7807619653374624	0.4726606838425387	3.5000046741246638
C	-5.120583855337462	-0.7651615561574615	3.500004734124664
C	5.119590234662538	0.7663851538425387	3.5000225941246637
N	5.7809056046625376	-0.4707137061574614	3.500002004124664
C	4.928278534662538	-1.5844022661574613	3.4999865741246636
O	5.645871234662538	1.8505850238425388	3.4999900141246636
O	-5.269808555337462	2.7409128438425383	3.500001084124664
O	-5.648038225337462	-1.8487710261574613	3.499999164124664
O	5.272337254662538	-2.739456146157462	3.500018254124664
H	-6.786915225337462	0.5563311938425387	3.500001424124664
H	6.787159014662539	-0.5531358961574614	3.500008444124664
H	-2.270455295337462	2.707697983842538	3.500002514124664
H	0.2012872746625379	2.478984333842538	3.4999977541246636
H	2.678298964662538	2.3050968438425383	3.500001304124664
H	2.2721730246625382	-2.7089598961574617	3.499999104124664
H	-0.20150090533746182	-2.4810585761574617	3.5000004341246638
H	-2.680280535337462	-2.3060706061574616	3.5000001441246638
