64
139a_H_capped PD long+short
C	-3.669333008429517	-0.4152578712939179	-1.4405874974705318e-05
C	-3.553038598429517	1.002915308706082	2.2424125025294683e-05
C	-2.3438072684295173	1.6249749387060823	4.404125025294684e-06
C	-1.159916078429517	0.8201815287060821	1.0984125025294684e-05
C	-1.277810778429517	-0.6240078712939179	-1.2935874974705317e-05
C	-2.577055678429517	-1.2257445012939179	5.234125025294684e-06
C	0.11364770157048287	1.3964567387060822	-8.575874974705318e-06
C	1.2774557915704827	0.6220456387060822	1.2084125025294684e-05
C	1.159907211570483	-0.8221704912939178	-9.455874974705316e-06
C	-0.11383799842951703	-1.398514911293918	9.084125025294682e-06
C	2.576095151570483	1.2246879187060822	1.8541250252946836e-06
C	3.6688329815704828	0.41503720870608213	-2.8665874974705317e-05
C	3.553481001570483	-1.003221891293918	6.874125025294684e-06
C	2.344549191570483	-1.6261596112939178	-1.8275874974705317e-05
C	-4.927086698429517	1.585440738706082	-1.4595874974705318e-05
N	-5.7807617484295175	0.47265910870608213	4.674125025294684e-06
C	-5.120583638429517	-0.765163131293918	4.734125025294683e-06
C	5.119590451570483	0.7663835787060822	2.2594125025294683e-05
N	5.7809058215704825	-0.47071528129391793	2.0041250252946837e-06
C	4.928278751570483	-1.5844038412939179	-1.3425874974705317e-05
O	5.645871451570483	1.8505834487060822	-9.985874974705316e-06
O	-5.269808338429517	2.740911268706082	1.0841250252946836e-06
O	-5.648038008429517	-1.8487726012939178	-8.358749747053165e-07
O	5.272337471570483	-2.739457721293918	1.8254125025294684e-05
H	-6.786915008429517	0.5563296187060822	1.4241250252946837e-06
H	6.787159231570484	-0.5531374712939179	8.444125025294685e-06
H	-2.270455078429517	2.7076964087060817	2.5141250252946834e-06
H	0.20128749157048276	2.4789827587060818	-2.2458749747053163e-06
H	2.678299181570483	2.305095268706082	1.3041250252946836e-06
H	2.272173241570483	-2.708961471293918	-8.958749747053163e-07
H	-0.20150068842951696	-2.481060151293918	4.341250252946836e-07
H	-2.680280318429517	-2.306072181293918	1.4412502529468362e-07
C	0.12556042768307538	-2.538611148861879	3.4999867849007273
C	0.24185483768307545	-1.120437968861879	3.5000236149007273
C	1.451086167683075	-0.4983783388618788	3.500005594900727
C	2.6349773576830753	-1.303171748861879	3.500012174900727
C	2.5170826576830754	-2.7473611488618794	3.4999882549007273
C	1.2178377576830752	-3.349097778861879	3.500006424900727
C	3.908541137683075	-0.726896538861879	3.499992614900727
C	5.072349227683075	-1.501307638861879	3.500013274900727
C	4.954800647683075	-2.945523768861879	3.499991734900727
C	3.6810554376830753	-3.521868188861879	3.500010274900727
C	6.370988587683075	-0.898665358861879	3.500003044900727
C	7.463726417683075	-1.708316068861879	3.499972524900727
C	7.348374437683075	-3.1265751688618795	3.5000080649007272
C	6.139442627683075	-3.749512888861879	3.4999829149007273
C	-1.1321932623169246	-0.5379125388618792	3.499986594900727
N	-1.9858683123169252	-1.650694168861879	3.5000058649007273
C	-1.3256902023169248	-2.888516408861879	3.5000059249007274
C	8.914483887683076	-1.356969698861879	3.500023784900727
N	9.575799257683075	-2.594068558861879	3.500003194900727
C	8.723172187683076	-3.707757118861879	3.499987764900727
O	9.440764887683075	-0.272769828861879	3.499991204900727
O	-1.4749149023169243	0.6175579911381207	3.5000022749007274
O	-1.8531445723169249	-3.972125878861879	3.500000354900727
O	9.067230907683077	-4.862810998861879	3.5000194449007274
H	-2.992021572316925	-1.5670236588618789	3.500002614900727
H	10.582052667683078	-2.676490748861879	3.500009634900727
H	1.5244383576830751	0.5843431311381205	3.500003704900727
H	3.996180927683075	0.3556294811381206	3.499998944900727
H	6.473192617683075	0.18174199113812076	3.5000024949007273
H	6.0670666776830755	-4.832314748861879	3.5000002949007274
H	3.593392747683075	-4.6044134288618785	3.5000016249007273
H	1.1146131176830751	-4.429425458861878	3.5000013349007273
