64
139a_H_capped TL90.0
C	-3.669333008429517	-0.4152578712939179	-1.4405874974705318e-05
C	-3.553038598429517	1.002915308706082	2.2424125025294683e-05
C	-2.3438072684295173	1.6249749387060823	4.404125025294684e-06
C	-1.159916078429517	0.8201815287060821	1.0984125025294684e-05
C	-1.277810778429517	-0.6240078712939179	-1.2935874974705317e-05
C	-2.577055678429517	-1.2257445012939179	5.234125025294684e-06
C	0.11364770157048287	1.3964567387060822	-8.575874974705318e-06
C	1.2774557915704827	0.6220456387060822	1.2084125025294684e-05
C	1.159907211570483	-0.8221704912939178	-9.455874974705316e-06
C	-0.11383799842951703	-1.398514911293918	9.084125025294682e-06
C	2.576095151570483	1.2246879187060822	1.8541250252946836e-06
C	3.6688329815704828	0.41503720870608213	-2.8665874974705317e-05
C	3.553481001570483	-1.003221891293918	6.874125025294684e-06
C	2.344549191570483	-1.6261596112939178	-1.8275874974705317e-05
C	-4.927086698429517	1.585440738706082	-1.4595874974705318e-05
N	-5.7807617484295175	0.47265910870608213	4.674125025294684e-06
C	-5.120583638429517	-0.765163131293918	4.734125025294683e-06
C	5.119590451570483	0.7663835787060822	2.2594125025294683e-05
N	5.7809058215704825	-0.47071528129391793	2.0041250252946837e-06
C	4.928278751570483	-1.5844038412939179	-1.3425874974705317e-05
O	5.645871451570483	1.8505834487060822	-9.985874974705316e-06
O	-5.269808338429517	2.740911268706082	1.0841250252946836e-06
O	-5.648038008429517	-1.8487726012939178	-8.358749747053165e-07
O	5.272337471570483	-2.739457721293918	1.8254125025294684e-05
H	-6.786915008429517	0.5563296187060822	1.4241250252946837e-06
H	6.787159231570484	-0.5531374712939179	8.444125025294685e-06
H	-2.270455078429517	2.7076964087060817	2.5141250252946834e-06
H	0.20128749157048276	2.4789827587060818	-2.2458749747053163e-06
H	2.678299181570483	2.305095268706082	1.3041250252946836e-06
H	2.272173241570483	-2.708961471293918	-8.958749747053163e-07
H	-0.20150068842951696	-2.481060151293918	4.341250252946836e-07
H	-2.680280318429517	-2.306072181293918	1.4412502529468362e-07
C	-3.6115013971811973	0.2943420286673811	-6.0981088299544295
C	-3.610793194709928	0.29424735950707565	-4.675175574628651
C	-2.459901247630623	0.20047010122237122	-3.956947097728274
C	-1.2186656239338756	0.09930533664934353	-4.662914943637258
C	-1.2188583221467537	0.09934504046511432	-6.111908437488636
C	-2.460815290690689	0.20054376110903233	-6.817192769949742
C	-0.00015884847689298274	1.9153352404683246e-05	-3.9850939409066113
C	1.2186652774869804	-0.09933324670918603	-4.662411202719637
C	1.218818386284642	-0.09932411334777255	-6.111403223315487
C	0.0001370640461634665	-2.268146363463182e-05	-6.789307944688369
C	2.459946734691879	-0.20048488088638483	-3.956273400309919
C	3.611026700750015	-0.29426492088976314	-4.674486776741079
C	3.6112557876257245	-0.29431924883277094	-6.09742911564786
C	2.4607359814545386	-0.2005290061418801	-6.816508451218699
C	-5.0229336714559585	0.40937106071644863	-4.206187444249936
N	-5.780886380914608	0.47112332126286227	-5.384634895760182
C	-5.024849597104605	0.4095078106473725	-6.5647412236559415
C	5.023762603232787	-0.4094514352901273	-4.206458094033439
N	5.780872255502772	-0.4711336640248561	-5.385751054045252
C	5.0240368554239305	-0.4094376468594435	-6.565017312386924
O	5.458796516471883	-0.4448731207694039	-3.083091791948425
O	-5.456942647154968	0.44472617191539154	-3.0823740729140012
O	-5.461093838479127	0.4450664118772511	-7.68761438821325
O	5.459336509777796	-0.444945462747265	-7.688306801096312
H	-6.787174668151967	0.55313701776661	-5.38296953767772
H	6.7871587083118206	-0.5531504116027751	-5.386164082160485
H	-2.474690472069039	0.2016772890095973	-2.8718451914915906
H	-0.0007395880335384862	6.013145074338625e-05	-2.8990262736451675
H	2.474006225963001	-0.20163014882435334	-2.871134365554873
H	2.47650025473198	-0.2018311997702537	-7.901611182963355
H	0.0006967992091651857	-5.9620055011443116e-05	-7.875396628577306
H	-2.4758946498534007	0.2017778048918951	-7.902335300941134
