116
135a PD long
C	-2.4341054984423307	1.4649168559679766	-1.5289717230453823e-05
C	-2.435632968442331	2.8587070759679767	-3.3369717230453826e-05
C	-1.2474829484423307	3.5671212659679767	4.9140282769546175e-05
C	-0.012780968442330565	2.8640416159679765	-6.185971723045383e-05
C	-0.006072178442330323	1.4351232159679765	-6.831971723045381e-05
C	-1.2494679184423303	0.7281866959679766	8.111028276954618e-05
C	1.2179058215576695	3.5758084559679766	5.454028276954617e-05
C	2.4153380515576695	2.879124365967977	-1.6369717230453823e-05
C	2.4208035715576695	1.4862673059679767	-7.957971723045383e-05
C	1.2422064915576696	0.7388760459679768	0.00011814028276954619
C	-1.3110035084423304	5.0487818559679765	-2.0839717230453822e-05
N	-0.05775602844233019	5.679030015967976	3.1790282769546174e-05
C	1.1819131915576695	5.020631025967976	-1.5289717230453823e-05
N	2.1953795515576697	5.844207625967977	-6.159717230453824e-06
O	-2.34183486844233	5.689646755967976	1.5502827695461764e-06
H	-3.36886132844233	3.4094079359679768	1.1180282769546176e-05
H	-3.391635808442331	0.9614298959679766	-2.3289717230453824e-05
H	3.3450606915576695	3.4355016059679766	4.890282769546176e-06
C	-1.2422218484423304	-0.7388757540320232	-0.00013475971723045382
C	0.006058811557669408	-1.4351217140320234	0.00019609028276954617
C	1.2494546515576697	-0.7281848740320234	-0.0001572897172304538
C	-2.4208172384423303	-1.4862706640320233	-1.6299717230453825e-05
C	-2.41534891844233	-2.8791295340320238	3.8700282769546174e-05
C	-1.2179152384423304	-3.5758110340320233	2.6320282769546177e-05
C	0.01276982155766948	-2.8640406140320236	-8.697971723045382e-05
C	2.4340942015576696	-1.4649111240320236	2.6390282769546178e-05
C	2.4356234115576694	-2.8587002440320237	4.8880282769546174e-05
C	1.2474745415576698	-3.5671160440320238	-1.0949717230453824e-05
C	1.3110015815576697	-5.048776094032023	2.7420282769546177e-05
N	0.057757071557669626	-5.679028064032023	1.1490282769546175e-05
C	-1.1819158484423307	-5.020634594032023	2.8190282769546178e-05
O	2.3418352215576697	-5.689637244032024	-9.719717230453824e-06
H	-3.3450696784423304	-3.4355092340320237	-1.8229717230453822e-05
H	3.39162348155767	-0.9614235140320235	-1.8639717230453823e-05
H	3.3688519615576697	-3.4093990640320238	-1.2329717230453824e-05
H	-3.3821174584423304	-0.9897986140320234	6.490282769546176e-06
H	3.3821018915576695	0.9897921959679767	1.5950282769546176e-05
N	-2.19537728844233	-5.844217954032024	-6.1097172304538235e-06
C	0.22958978155766951	7.048724585967976	-1.3949717230453822e-05
C	1.6410745315576696	7.115259385967977	1.9790282769546177e-05
C	2.2825045315576693	8.356469595967976	-2.7239717230453822e-05
C	1.4895712315576697	9.496868215967977	3.0260282769546176e-05
C	0.0865588915576696	9.411219815967977	1.0250282769546177e-05
C	-0.5737886984423306	8.184788055967976	-2.1319717230453824e-05
C	-0.22958105844233057	-7.048724024032023	-6.979717230453824e-06
C	-1.64106525844233	-7.115266794032024	1.5230282769546176e-05
C	0.5738072615576697	-8.184780334032023	3.0440282769546178e-05
C	-0.08653102844233018	-9.411216794032024	-4.9339717230453824e-05
C	-1.4895429984423307	-9.496875024032024	-7.969717230453823e-06
C	-2.28248567844233	-8.356482384032024	2.5510282769546176e-05
H	1.6520838015576695	-8.111264674032023	-3.1971723045382365e-07
H	0.49987492155766944	-10.323983684032024	-3.063971723045382e-05
H	-1.95928644844233	-10.474972764032023	-2.179717230453824e-06
H	-3.3652321384423303	-8.409907544032023	-7.839717230453825e-06
H	-1.65206585844233	8.111281825967977	1.2302827695461761e-06
H	-0.4998408184423302	10.323990615967976	-1.5669717230453823e-05
H	1.9593221015576696	10.474962415967976	8.960282769546177e-06
H	3.36525143155767	8.409884295967977	-1.1229717230453824e-05
C	-2.045211144832216	7.293040551135353	3.4999861944833985
C	-2.046738614832216	8.686830771135353	3.4999681144833983
C	-0.8585885948322162	9.395244961135354	3.500050624483398
C	0.3761133851677839	8.692165311135353	3.4999396244833982
C	0.38282217516778416	7.263246911135353	3.4999331644833984
C	-0.8605735648322158	6.556310391135352	3.5000825944833984
C	1.6068001751677838	9.403932151135354	3.5000560244833983
C	2.804232405167784	8.707248061135353	3.4999851144833984
C	2.809697925167784	7.314391001135353	3.4999219044833985
C	1.631100845167784	6.566999741135352	3.5001196244833985
C	-0.9221091548322159	10.876905551135353	3.4999806444833985
N	0.3311383251677843	11.507153711135352	3.5000332744833984
C	1.5708075451677839	10.848754721135354	3.4999861944833985
N	2.5842739051677843	11.672331321135353	3.4999953244833986
O	-1.9529405148322156	11.517770451135352	3.5000030344833983
H	-2.9799669748322155	9.237531631135354	3.5000126644833984
H	-3.002741454832216	6.789553591135353	3.4999781944833983
H	3.733955045167784	9.263625301135352	3.5000063744833985
C	-0.8533274948322159	5.089247941135352	3.4998667244833985
C	0.3949531651677839	4.3930019811353525	3.5001975744833986
C	1.638349005167784	5.0999388211353525	3.4998441944833982
C	-2.0319228848322157	4.3418530311353525	3.4999851844833985
C	-2.0264545648322154	2.948994161135352	3.5000401844833986
C	-0.8290208848322159	2.2523126611353526	3.5000278044833983
C	0.40166417516778397	2.9640830811353522	3.4999145044833986
C	2.8229885551677842	4.363212571135352	3.5000278744833984
C	2.824517765167784	2.969423451135352	3.5000503644833985
C	1.6363688951677842	2.261007651135352	3.4999905344833984
C	1.699895935167784	0.7793476011353527	3.5000289044833983
N	0.4466514251677841	0.149095631135353	3.5000129744833983
C	-0.7930214948322162	0.807489101135353	3.5000296744833985
O	2.7307295751677843	0.1384864511353518	3.4999917644833984
H	-2.956175324832216	2.392614461135352	3.499983254483398
H	3.7805178351677844	4.866700181135353	3.4999828444833985
H	3.7577463151677843	2.418724631135352	3.4999891544833983
H	-2.9932231048322158	4.838325081135353	3.5000079744833985
H	3.770996245167784	6.817915891135352	3.5000174344833983
N	-1.8064829348322158	-0.016094258864647618	3.4999953744833983
C	0.618484135167784	12.876848281135352	3.4999875344833984
C	2.029968885167784	12.943383081135353	3.5000212744833985
C	2.671398885167784	14.184593291135354	3.4999742444833983
C	1.878465585167784	15.324991911135353	3.5000317444833984
C	0.4754532451677841	15.239343511135353	3.5000117344833983
C	-0.18489434483221612	14.012911751135352	3.4999801644833983
C	0.15931329516778392	-1.2206003288646465	3.499994504483398
C	-1.2521709048322156	-1.2871430988646482	3.5000167144833982
C	0.9627016151677842	-2.3566566388646475	3.5000319244833986
C	0.3023633251677843	-3.583093098864648	3.4999521444833985
C	-1.1006486448322164	-3.668751328864648	3.4999935144833985
C	-1.8935913248322158	-2.528358688864648	3.5000269944833984
H	2.0409781551677844	-2.2831409788646475	3.5000011644833986
H	0.8887692751677839	-4.495859988864648	3.4999708444833986
H	-1.5703920948322156	-4.646849068864647	3.4999993044833984
H	-2.9763377848322157	-2.5817838488646476	3.4999936444833986
H	-1.2631715048322156	13.939405521135352	3.5000027144833985
H	-0.1109464648322157	16.152114311135353	3.4999858144833986
H	2.348216455167784	16.303086111135354	3.5000104444833986
H	3.7541457851677844	14.238007991135355	3.4999902544833983
