116
135a cofacial 4.5A
C	-2.4341054984423307	1.4649168559679766	-1.5289717230453823e-05
C	-2.435632968442331	2.8587070759679767	-3.3369717230453826e-05
C	-1.2474829484423307	3.5671212659679767	4.9140282769546175e-05
C	-0.012780968442330565	2.8640416159679765	-6.185971723045383e-05
C	-0.006072178442330323	1.4351232159679765	-6.831971723045381e-05
C	-1.2494679184423303	0.7281866959679766	8.111028276954618e-05
C	1.2179058215576695	3.5758084559679766	5.454028276954617e-05
C	2.4153380515576695	2.879124365967977	-1.6369717230453823e-05
C	2.4208035715576695	1.4862673059679767	-7.957971723045383e-05
C	1.2422064915576696	0.7388760459679768	0.00011814028276954619
C	-1.3110035084423304	5.0487818559679765	-2.0839717230453822e-05
N	-0.05775602844233019	5.679030015967976	3.1790282769546174e-05
C	1.1819131915576695	5.020631025967976	-1.5289717230453823e-05
N	2.1953795515576697	5.844207625967977	-6.159717230453824e-06
O	-2.34183486844233	5.689646755967976	1.5502827695461764e-06
H	-3.36886132844233	3.4094079359679768	1.1180282769546176e-05
H	-3.391635808442331	0.9614298959679766	-2.3289717230453824e-05
H	3.3450606915576695	3.4355016059679766	4.890282769546176e-06
C	-1.2422218484423304	-0.7388757540320232	-0.00013475971723045382
C	0.006058811557669408	-1.4351217140320234	0.00019609028276954617
C	1.2494546515576697	-0.7281848740320234	-0.0001572897172304538
C	-2.4208172384423303	-1.4862706640320233	-1.6299717230453825e-05
C	-2.41534891844233	-2.8791295340320238	3.8700282769546174e-05
C	-1.2179152384423304	-3.5758110340320233	2.6320282769546177e-05
C	0.01276982155766948	-2.8640406140320236	-8.697971723045382e-05
C	2.4340942015576696	-1.4649111240320236	2.6390282769546178e-05
C	2.4356234115576694	-2.8587002440320237	4.8880282769546174e-05
C	1.2474745415576698	-3.5671160440320238	-1.0949717230453824e-05
C	1.3110015815576697	-5.048776094032023	2.7420282769546177e-05
N	0.057757071557669626	-5.679028064032023	1.1490282769546175e-05
C	-1.1819158484423307	-5.020634594032023	2.8190282769546178e-05
O	2.3418352215576697	-5.689637244032024	-9.719717230453824e-06
H	-3.3450696784423304	-3.4355092340320237	-1.8229717230453822e-05
H	3.39162348155767	-0.9614235140320235	-1.8639717230453823e-05
H	3.3688519615576697	-3.4093990640320238	-1.2329717230453824e-05
H	-3.3821174584423304	-0.9897986140320234	6.490282769546176e-06
H	3.3821018915576695	0.9897921959679767	1.5950282769546176e-05
N	-2.19537728844233	-5.844217954032024	-6.1097172304538235e-06
C	0.22958978155766951	7.048724585967976	-1.3949717230453822e-05
C	1.6410745315576696	7.115259385967977	1.9790282769546177e-05
C	2.2825045315576693	8.356469595967976	-2.7239717230453822e-05
C	1.4895712315576697	9.496868215967977	3.0260282769546176e-05
C	0.0865588915576696	9.411219815967977	1.0250282769546177e-05
C	-0.5737886984423306	8.184788055967976	-2.1319717230453824e-05
C	-0.22958105844233057	-7.048724024032023	-6.979717230453824e-06
C	-1.64106525844233	-7.115266794032024	1.5230282769546176e-05
C	0.5738072615576697	-8.184780334032023	3.0440282769546178e-05
C	-0.08653102844233018	-9.411216794032024	-4.9339717230453824e-05
C	-1.4895429984423307	-9.496875024032024	-7.969717230453823e-06
C	-2.28248567844233	-8.356482384032024	2.5510282769546176e-05
H	1.6520838015576695	-8.111264674032023	-3.1971723045382365e-07
H	0.49987492155766944	-10.323983684032024	-3.063971723045382e-05
H	-1.95928644844233	-10.474972764032023	-2.179717230453824e-06
H	-3.3652321384423303	-8.409907544032023	-7.839717230453825e-06
H	-1.65206585844233	8.111281825967977	1.2302827695461761e-06
H	-0.4998408184423302	10.323990615967976	-1.5669717230453823e-05
H	1.9593221015576696	10.474962415967976	8.960282769546177e-06
H	3.36525143155767	8.409884295967977	-1.1229717230453824e-05
C	-2.434106650033246	1.4649157868323521	4.4999847102824955
C	-2.4356341200332463	2.858706006832352	4.499966630282495
C	-1.2474841000332462	3.5671201968323523	4.500049140282495
C	-0.012782120033246035	2.864040546832352	4.499938140282495
C	-0.006073330033245793	1.435122146832352	4.499931680282495
C	-1.2494690700332458	0.7281856268323522	4.500081110282495
C	1.217904669966754	3.575807386832352	4.500054540282495
C	2.415336899966754	2.8791232968323524	4.499983630282495
C	2.420802419966754	1.4862662368323523	4.499920420282495
C	1.242205339966754	0.7388749768323525	4.5001181402824955
C	-1.311004660033246	5.048780786832352	4.4999791602824954
N	-0.05775718003324566	5.679028946832352	4.500031790282495
C	1.181912039966754	5.020629956832352	4.4999847102824955
N	2.195378399966754	5.8442065568323525	4.499993840282495
O	-2.3418360200332455	5.6896456868323515	4.500001550282495
H	-3.3688624800332456	3.4094068668323523	4.500011180282495
H	-3.3916369600332463	0.9614288268323522	4.499976710282495
H	3.345059539966754	3.435500536832352	4.500004890282495
C	-1.242223000033246	-0.7388768231676476	4.499865240282495
C	0.006057659966753937	-1.4351227831676479	4.500196090282495
C	1.2494534999667541	-0.7281859431676477	4.499842710282495
C	-2.420818390033246	-1.4862717331676478	4.499983700282495
C	-2.4153500700332455	-2.8791306031676482	4.500038700282495
C	-1.217916390033246	-3.5758121031676477	4.500026320282495
C	0.01276866996675401	-2.864041683167648	4.499913020282495
C	2.434093049966754	-1.464912193167648	4.500026390282495
C	2.435622259966754	-2.858701313167648	4.500048880282495
C	1.2474733899667543	-3.5671171131676482	4.499989050282495
C	1.3110004299667541	-5.048777163167648	4.500027420282495
N	0.05775591996675415	-5.6790291331676475	4.500011490282495
C	-1.1819170000332462	-5.020635663167647	4.500028190282495
O	2.341834069966754	-5.689638313167649	4.499990280282495
H	-3.345070830033246	-3.435510303167648	4.499981770282495
H	3.3916223299667543	-0.9614245831676479	4.499981360282495
H	3.3688508099667542	-3.4094001331676482	4.499987670282495
H	-3.382118610033246	-0.9897996831676478	4.500006490282495
H	3.382100739966754	0.9897911268323524	4.500015950282495
N	-2.1953784400332457	-5.844219023167648	4.499993890282495
C	0.22958862996675405	7.048723516832352	4.499986050282495
C	1.641073379966754	7.115258316832352	4.500019790282495
C	2.282503379966754	8.356468526832352	4.499972760282495
C	1.4895700799667542	9.496867146832352	4.500030260282495
C	0.08655773996675413	9.411218746832352	4.500010250282495
C	-0.5737898500332461	8.184786986832352	4.499978680282495
C	-0.22958221003324603	-7.048725093167647	4.499993020282495
C	-1.6410664100332455	-7.115267863167649	4.500015230282495
C	0.5738061099667542	-8.184781403167648	4.500030440282495
C	-0.08653218003324566	-9.411217863167648	4.4999506602824955
C	-1.4895441500332463	-9.496876093167648	4.499992030282495
C	-2.2824868300332457	-8.356483453167648	4.500025510282495
H	1.652082649966754	-8.111265743167648	4.499999680282495
H	0.499873769966754	-10.323984753167649	4.4999693602824955
H	-1.9592876000332455	-10.474973833167647	4.499997820282495
H	-3.365233290033246	-8.409908613167648	4.4999921602824955
H	-1.6520670100332455	8.111280756832352	4.500001230282495
H	-0.49984197003324565	10.323989546832351	4.499984330282495
H	1.959320949966754	10.474961346832352	4.5000089602824955
H	3.3652502799667543	8.409883226832353	4.499988770282495
