116
135a PD long+short
C	-2.4341054984423307	1.4649168559679766	-1.5289717230453823e-05
C	-2.435632968442331	2.8587070759679767	-3.3369717230453826e-05
C	-1.2474829484423307	3.5671212659679767	4.9140282769546175e-05
C	-0.012780968442330565	2.8640416159679765	-6.185971723045383e-05
C	-0.006072178442330323	1.4351232159679765	-6.831971723045381e-05
C	-1.2494679184423303	0.7281866959679766	8.111028276954618e-05
C	1.2179058215576695	3.5758084559679766	5.454028276954617e-05
C	2.4153380515576695	2.879124365967977	-1.6369717230453823e-05
C	2.4208035715576695	1.4862673059679767	-7.957971723045383e-05
C	1.2422064915576696	0.7388760459679768	0.00011814028276954619
C	-1.3110035084423304	5.0487818559679765	-2.0839717230453822e-05
N	-0.05775602844233019	5.679030015967976	3.1790282769546174e-05
C	1.1819131915576695	5.020631025967976	-1.5289717230453823e-05
N	2.1953795515576697	5.844207625967977	-6.159717230453824e-06
O	-2.34183486844233	5.689646755967976	1.5502827695461764e-06
H	-3.36886132844233	3.4094079359679768	1.1180282769546176e-05
H	-3.391635808442331	0.9614298959679766	-2.3289717230453824e-05
H	3.3450606915576695	3.4355016059679766	4.890282769546176e-06
C	-1.2422218484423304	-0.7388757540320232	-0.00013475971723045382
C	0.006058811557669408	-1.4351217140320234	0.00019609028276954617
C	1.2494546515576697	-0.7281848740320234	-0.0001572897172304538
C	-2.4208172384423303	-1.4862706640320233	-1.6299717230453825e-05
C	-2.41534891844233	-2.8791295340320238	3.8700282769546174e-05
C	-1.2179152384423304	-3.5758110340320233	2.6320282769546177e-05
C	0.01276982155766948	-2.8640406140320236	-8.697971723045382e-05
C	2.4340942015576696	-1.4649111240320236	2.6390282769546178e-05
C	2.4356234115576694	-2.8587002440320237	4.8880282769546174e-05
C	1.2474745415576698	-3.5671160440320238	-1.0949717230453824e-05
C	1.3110015815576697	-5.048776094032023	2.7420282769546177e-05
N	0.057757071557669626	-5.679028064032023	1.1490282769546175e-05
C	-1.1819158484423307	-5.020634594032023	2.8190282769546178e-05
O	2.3418352215576697	-5.689637244032024	-9.719717230453824e-06
H	-3.3450696784423304	-3.4355092340320237	-1.8229717230453822e-05
H	3.39162348155767	-0.9614235140320235	-1.8639717230453823e-05
H	3.3688519615576697	-3.4093990640320238	-1.2329717230453824e-05
H	-3.3821174584423304	-0.9897986140320234	6.490282769546176e-06
H	3.3821018915576695	0.9897921959679767	1.5950282769546176e-05
N	-2.19537728844233	-5.844217954032024	-6.1097172304538235e-06
C	0.22958978155766951	7.048724585967976	-1.3949717230453822e-05
C	1.6410745315576696	7.115259385967977	1.9790282769546177e-05
C	2.2825045315576693	8.356469595967976	-2.7239717230453822e-05
C	1.4895712315576697	9.496868215967977	3.0260282769546176e-05
C	0.0865588915576696	9.411219815967977	1.0250282769546177e-05
C	-0.5737886984423306	8.184788055967976	-2.1319717230453824e-05
C	-0.22958105844233057	-7.048724024032023	-6.979717230453824e-06
C	-1.64106525844233	-7.115266794032024	1.5230282769546176e-05
C	0.5738072615576697	-8.184780334032023	3.0440282769546178e-05
C	-0.08653102844233018	-9.411216794032024	-4.9339717230453824e-05
C	-1.4895429984423307	-9.496875024032024	-7.969717230453823e-06
C	-2.28248567844233	-8.356482384032024	2.5510282769546176e-05
H	1.6520838015576695	-8.111264674032023	-3.1971723045382365e-07
H	0.49987492155766944	-10.323983684032024	-3.063971723045382e-05
H	-1.95928644844233	-10.474972764032023	-2.179717230453824e-06
H	-3.3652321384423303	-8.409907544032023	-7.839717230453825e-06
H	-1.65206585844233	8.111281825967977	1.2302827695461761e-06
H	-0.4998408184423302	10.323990615967976	-1.5669717230453823e-05
H	1.9593221015576696	10.474962415967976	8.960282769546177e-06
H	3.36525143155767	8.409884295967977	-1.1229717230453824e-05
C	0.2937735716812353	7.136966321724247	3.49998675596985
C	0.2922461016812352	8.530756541724248	3.49996867596985
C	1.4803961216812354	9.239170731724249	3.50005118596985
C	2.7150981016812357	8.536091081724248	3.4999401859698502
C	2.721806891681236	7.107172681724248	3.49993372596985
C	1.4784111516812357	6.400236161724248	3.50008315596985
C	3.9457848916812357	9.247857921724249	3.50005658596985
C	5.143217121681236	8.551173831724249	3.49998567596985
C	5.148682641681236	7.158316771724248	3.49992246596985
C	3.970085561681236	6.4109255117242485	3.50012018596985
C	1.4168755616812356	10.720831321724248	3.49998120596985
N	2.670123041681236	11.351079481724248	3.50003383596985
C	3.9097922616812357	10.692680491724248	3.49998675596985
N	4.923258621681236	11.516257091724249	3.49999588596985
O	0.386044201681236	11.361696221724248	3.50000359596985
H	-0.6409822583187641	9.081457401724249	3.50001322596985
H	-0.6637567383187648	6.633479361724247	3.49997875596985
H	6.072939761681236	9.107551071724249	3.50000693596985
C	1.4856572216812356	4.9331737117242485	3.49986728596985
C	2.7339378816812356	4.236927751724248	3.50019813596985
C	3.977333721681236	4.943864591724248	3.4998447559698502
C	0.3070618316812357	4.185778801724248	3.49998574596985
C	0.312530151681236	2.7929199317242475	3.50004074596985
C	1.5099638316812356	2.096238431724248	3.50002836596985
C	2.7406488916812357	2.8080088517242476	3.49991506596985
C	5.161973271681236	4.207138341724248	3.50002843596985
C	5.163502481681236	2.8133492217242475	3.50005092596985
C	3.975353611681236	2.1049334217242475	3.49999109596985
C	4.038880651681236	0.6232733717242481	3.50002946596985
N	2.785636141681236	-0.006978598275751604	3.50001353596985
C	1.5459632216812353	0.6514148717242484	3.50003023596985
O	5.069714291681236	-0.01758777827575282	3.49999232596985
H	-0.6171906083187644	2.2365402317242475	3.49998381596985
H	6.119502551681236	4.710625951724247	3.49998340596985
H	6.096731031681236	2.2626504017242475	3.49998971596985
H	-0.6542383883187644	4.682250851724247	3.50000853596985
H	6.109980961681235	6.661841661724248	3.50001799596985
N	0.5325017816812359	-0.1721684882757522	3.49999593596985
C	2.9574688516812357	12.720774051724248	3.49998809596985
C	4.368953601681236	12.787308851724248	3.50002183596985
C	5.0103836016812355	14.028519061724248	3.49997480596985
C	4.217450301681236	15.168917681724249	3.50003230596985
C	2.814437961681236	15.083269281724249	3.50001229596985
C	2.1540903716812356	13.856837521724248	3.49998072596985
C	2.4982980116812357	-1.3766745582757511	3.49999506596985
C	1.086813811681236	-1.4432173282757528	3.5000172759698502
C	3.301686331681236	-2.512730868275752	3.50003248596985
C	2.641348041681236	-3.7391673282757525	3.49995270596985
C	1.2383360716812353	-3.8248255582757524	3.49999407596985
C	0.4453933916812358	-2.6844329182757525	3.50002755596985
H	4.3799628716812355	-2.439215208275752	3.50000172596985
H	3.2277539916812357	-4.651934218275753	3.49997140596985
H	0.768592621681236	-4.8029232982757515	3.49999986596985
H	-0.6373530683187643	-2.7378580782757522	3.49999420596985
H	1.075813211681236	13.783331291724249	3.50000327596985
H	2.228038251681236	15.996040081724248	3.49998637596985
H	4.687201171681235	16.14701188172425	3.50001100596985
H	6.0931305016812365	14.08193376172425	3.49999081596985
