116
135a TL90.0
C	-2.4341054984423307	1.4649168559679766	-1.5289717230453823e-05
C	-2.435632968442331	2.8587070759679767	-3.3369717230453826e-05
C	-1.2474829484423307	3.5671212659679767	4.9140282769546175e-05
C	-0.012780968442330565	2.8640416159679765	-6.185971723045383e-05
C	-0.006072178442330323	1.4351232159679765	-6.831971723045381e-05
C	-1.2494679184423303	0.7281866959679766	8.111028276954618e-05
C	1.2179058215576695	3.5758084559679766	5.454028276954617e-05
C	2.4153380515576695	2.879124365967977	-1.6369717230453823e-05
C	2.4208035715576695	1.4862673059679767	-7.957971723045383e-05
C	1.2422064915576696	0.7388760459679768	0.00011814028276954619
C	-1.3110035084423304	5.0487818559679765	-2.0839717230453822e-05
N	-0.05775602844233019	5.679030015967976	3.1790282769546174e-05
C	1.1819131915576695	5.020631025967976	-1.5289717230453823e-05
N	2.1953795515576697	5.844207625967977	-6.159717230453824e-06
O	-2.34183486844233	5.689646755967976	1.5502827695461764e-06
H	-3.36886132844233	3.4094079359679768	1.1180282769546176e-05
H	-3.391635808442331	0.9614298959679766	-2.3289717230453824e-05
H	3.3450606915576695	3.4355016059679766	4.890282769546176e-06
C	-1.2422218484423304	-0.7388757540320232	-0.00013475971723045382
C	0.006058811557669408	-1.4351217140320234	0.00019609028276954617
C	1.2494546515576697	-0.7281848740320234	-0.0001572897172304538
C	-2.4208172384423303	-1.4862706640320233	-1.6299717230453825e-05
C	-2.41534891844233	-2.8791295340320238	3.8700282769546174e-05
C	-1.2179152384423304	-3.5758110340320233	2.6320282769546177e-05
C	0.01276982155766948	-2.8640406140320236	-8.697971723045382e-05
C	2.4340942015576696	-1.4649111240320236	2.6390282769546178e-05
C	2.4356234115576694	-2.8587002440320237	4.8880282769546174e-05
C	1.2474745415576698	-3.5671160440320238	-1.0949717230453824e-05
C	1.3110015815576697	-5.048776094032023	2.7420282769546177e-05
N	0.057757071557669626	-5.679028064032023	1.1490282769546175e-05
C	-1.1819158484423307	-5.020634594032023	2.8190282769546178e-05
O	2.3418352215576697	-5.689637244032024	-9.719717230453824e-06
H	-3.3450696784423304	-3.4355092340320237	-1.8229717230453822e-05
H	3.39162348155767	-0.9614235140320235	-1.8639717230453823e-05
H	3.3688519615576697	-3.4093990640320238	-1.2329717230453824e-05
H	-3.3821174584423304	-0.9897986140320234	6.490282769546176e-06
H	3.3821018915576695	0.9897921959679767	1.5950282769546176e-05
N	-2.19537728844233	-5.844217954032024	-6.1097172304538235e-06
C	0.22958978155766951	7.048724585967976	-1.3949717230453822e-05
C	1.6410745315576696	7.115259385967977	1.9790282769546177e-05
C	2.2825045315576693	8.356469595967976	-2.7239717230453822e-05
C	1.4895712315576697	9.496868215967977	3.0260282769546176e-05
C	0.0865588915576696	9.411219815967977	1.0250282769546177e-05
C	-0.5737886984423306	8.184788055967976	-2.1319717230453824e-05
C	-0.22958105844233057	-7.048724024032023	-6.979717230453824e-06
C	-1.64106525844233	-7.115266794032024	1.5230282769546176e-05
C	0.5738072615576697	-8.184780334032023	3.0440282769546178e-05
C	-0.08653102844233018	-9.411216794032024	-4.9339717230453824e-05
C	-1.4895429984423307	-9.496875024032024	-7.969717230453823e-06
C	-2.28248567844233	-8.356482384032024	2.5510282769546176e-05
H	1.6520838015576695	-8.111264674032023	-3.1971723045382365e-07
H	0.49987492155766944	-10.323983684032024	-3.063971723045382e-05
H	-1.95928644844233	-10.474972764032023	-2.179717230453824e-06
H	-3.3652321384423303	-8.409907544032023	-7.839717230453825e-06
H	-1.65206585844233	8.111281825967977	1.2302827695461761e-06
H	-0.4998408184423302	10.323990615967976	-1.5669717230453823e-05
H	1.9593221015576696	10.474962415967976	8.960282769546177e-06
H	3.36525143155767	8.409884295967977	-1.1229717230453824e-05
C	0.08651281949906878	1.29672370076382	-3.9321342880390886
C	0.1790793011475995	2.684235257596093	-3.837812302313443
C	0.23148933404457167	3.4684346462564277	-4.9761600737364615
C	0.19014527492749644	2.8505024803238648	-6.2549331157821015
C	0.09524366491880917	1.428364298005968	-6.356763742682177
C	0.0429183276491934	0.6419505138628592	-5.163194452243403
C	0.24300040054252986	3.640863195423191	-7.435500055382288
C	0.20195599844422996	3.0268196733108375	-8.676660231080163
C	0.10938785478600031	1.6405041639471065	-8.774849399390444
C	0.0547104790559078	0.8181164444828151	-7.648628446353384
C	0.32956657051038796	4.939312203800737	-4.814132184782816
N	0.37704268299668264	5.650018588080437	-6.0226372307660405
C	0.3387526150449701	5.076894748675032	-7.303391673532652
N	0.397965481200917	5.964146389960583	-8.259775927125455
O	0.3675929275209474	5.508854798268272	-3.7429196276437273
H	0.21157070949121182	3.1704959594093327	-2.8699892558045916
H	0.04881300424281988	0.7318586634436917	-3.010250549671982
H	0.2430593483341264	3.6424923419952946	-9.567276591042948
C	-0.05472380478236474	-0.8181129986870094	-5.268100780103362
C	-0.09511283182117118	-1.4283691287204292	-6.559967388797763
C	-0.042990970316795996	-0.6419414405598506	-7.753536757709198
C	-0.10948049962959425	-1.6404989626480577	-4.1418817563317
C	-0.20193080340631275	-3.026823958286279	-4.2400738389380805
C	-0.24291662688899696	-3.6408687024239836	-5.481235288977583
C	-0.1902904614499382	-2.8504892449183488	-6.661800264061695
C	-0.08649810734848432	-1.2967164149399801	-8.984598627216338
C	-0.17906010799462174	-2.6842270546705067	-9.078922275843645
C	-0.2314476130716693	-3.468429479809813	-7.940575759061968
C	-0.32955632480234165	-4.939303964706657	-8.102610077684329
N	-0.3769960586580771	-5.650016388245255	-6.894108248779063
C	-0.33873668639997356	-5.076896267497598	-5.613350481741336
O	-0.36759713986078485	-5.508841692292014	-9.173824660091118
H	-0.24306989923732944	-3.6424965763003185	-3.349459518589458
H	-0.04885116581231972	-0.7318472682400706	-9.906481294592192
H	-0.21156800301019554	-3.1704846036980086	-10.046745376108658
H	-0.08073773016609412	-1.2100901009095903	-3.1496596668460852
H	0.08076293108665324	1.210084251921971	-9.767069796825307
N	-0.3979750939737787	-5.9641526361787935	-4.656971587309308
C	0.4692613784202637	7.032733521257988	-6.218151827372945
C	0.4799718672894184	7.192738619763226	-7.622074807494185
C	0.5652234775170569	8.471061276438883	-8.179442353107802
C	0.6375240943947721	9.553724917523402	-7.312341266079446
C	0.6255951203218463	9.375252869161766	-5.918144471309638
C	0.5411629781942074	8.110391656013935	-5.340917369206743
C	-0.4692788799052059	-7.032727920025551	-6.698601407676722
C	-0.4799340699381449	-7.192744641760498	-5.294679506973994
C	-0.5411499770885976	-8.110380273531181	-7.5758452072996825
C	-0.6256304932477634	-9.375242338254111	-6.998627697485029
C	-0.6374988748929195	-9.553728235082295	-5.604431926371067
C	-0.5652226635573732	-8.471069571391707	-4.737321878301415
H	-0.531517143119492	-7.965556588441187	-8.64683454369499
H	-0.6836487026582048	-10.245008353510816	-7.644504078928601
H	-0.7045516786262175	-10.558696553693727	-5.200852073128434
H	-0.5736046415622849	-8.596184490139676	-3.660534923965882
H	0.5315225761406175	7.965577864548732	-4.269926786342124
H	0.6836064131593986	10.245023672321269	-5.272274055694279
H	0.7045612202669471	10.558691237391674	-7.715928758549551
H	0.5735874610758055	8.596166965264292	-9.256230442888967
