60
4cene_F2 TL45.0
C	-3.7132936240022443	-0.6436737357274842	0.00010277201399481773
C	-3.6863560940022446	0.7832850042725159	-7.375798600518228e-05
C	-2.4994433840022445	1.4465359142725158	7.387201399481773e-05
C	-1.2547084240022448	0.7483782542725158	-0.00011562798600518227
C	-1.2820289140022445	-0.7003682457274841	0.00012299201399481772
C	-2.552176674002245	-1.351149335727484	-0.00011632798600518227
C	-0.035406084002244764	1.4104106942725156	9.475201399481773e-05
C	1.1825757459977553	0.7025243142725158	-9.312798600518228e-05
C	1.1552084359977552	-0.7465598857274841	7.117201399481773e-05
C	-0.08861306400224467	-1.4079980957274842	-6.856798600518227e-05
C	2.4273322259977554	1.3595798042725158	7.186201399481773e-05
C	3.6268428959977554	0.6565562542725158	-5.814798600518228e-05
C	3.5994585359977553	-0.7929895657274841	6.366201399481773e-05
C	2.3742325459977556	-1.4502081657274841	-5.257798600518228e-05
C	4.898829385997756	1.3156012742725158	-8.137986005182279e-06
C	6.059685345997755	0.6003890842725158	1.1462013994817722e-05
C	6.0326926959977545	-0.8287451457274841	7.2420139948177205e-06
C	4.8456381259977555	-1.499627105727484	-3.510798600518228e-05
H	-0.11542263400224462	-2.491599245727484	6.072013994817721e-06
H	2.3527492359977553	-2.5364162157274843	3.832013994817721e-06
H	4.825757745997755	-2.585329495727484	1.3452013994817721e-05
H	4.920049765997755	2.401269584272516	-8.327986005182279e-06
H	2.446984545997755	2.4458265742725156	-9.127986005182278e-06
H	-0.021264944002244768	2.494257154272516	-9.697986005182279e-06
F	-2.488512154002245	2.791053004272516	-1.719798600518228e-05
F	-4.854682634002245	1.4337307342725158	9.042013994817721e-06
F	-4.905342464002246	-1.249535965727484	-2.365798600518228e-05
F	-2.591899024002245	-2.6951448757274843	3.285201399481772e-05
H	7.015990205997756	1.1132428042725158	7.08201399481772e-06
H	6.968982535997755	-1.377274965727484	-3.857986005182279e-06
C	-3.7093487357199315	-0.4347535552890616	-5.246950841455043
C	-3.690300329638987	0.5743834809065659	-4.237883694159181
C	-2.5071801387756683	1.0367759901754665	-3.7530297430424095
C	-1.2587129462290254	0.5362838485345093	-4.230131996300008
C	-1.2780246516990417	-0.4883035140908875	-5.254563878738155
C	-2.544438917363798	-0.9413522590492586	-5.731777833920849
C	-0.043200607828289994	0.9975912207469474	-3.7456627447064683
C	1.1785700090131288	0.490365572774023	-4.229998993979566
C	1.1592143474254955	-0.5344078134171364	-5.254722800992742
C	-0.08081881965927015	-0.9952093322709235	-5.739049296024027
C	2.419561950474185	0.9480445630369452	-3.74874066234939
C	3.622835679653437	0.4443191631983186	-4.2298446328438395
C	3.603466089015381	-0.580750551940292	-5.2549250688847975
C	2.38200284988509	-1.0386873304342004	-5.736003535067951
C	4.891045324898049	0.9033359252509173	-3.7468975555221067
C	6.055733764389043	0.39109850518788414	-4.237028865866057
C	6.036644683643889	-0.6194489703296119	-5.247762588095133
C	4.853423429024052	-1.0873118900429721	-5.7379389942776395
H	-0.10163610577779417	-1.7614487209017482	-6.505439569191267
H	2.366525922897187	-1.8067869045591376	-6.504178627501668
H	4.839546574062451	-1.8550571673922578	-6.5057407483281064
H	4.906261582709143	1.671015496310109	-2.979067805159282
H	2.4332081926431157	1.7161990201616266	-2.9805800179198885
H	-0.035051387571532096	1.7640952048710574	-2.9792892299397415
F	-2.5036817398119076	1.9876374396370147	-2.802400493272711
F	-4.862101887262659	1.0407862419507874	-3.793568341464153
F	-4.897922065803694	-0.8565467435179004	-5.691285670213504
F	-2.576729090036519	-1.8917267802676092	-6.682381596301287
H	7.0091036478816715	0.7485107719746161	-3.8616886732457276
H	6.975869382039497	-1.012543592468364	-5.623072076396372
