60
4cene_F2 TS90.0anti
C	-3.7132936240022443	-0.6436737357274842	0.00010277201399481773
C	-3.6863560940022446	0.7832850042725159	-7.375798600518228e-05
C	-2.4994433840022445	1.4465359142725158	7.387201399481773e-05
C	-1.2547084240022448	0.7483782542725158	-0.00011562798600518227
C	-1.2820289140022445	-0.7003682457274841	0.00012299201399481772
C	-2.552176674002245	-1.351149335727484	-0.00011632798600518227
C	-0.035406084002244764	1.4104106942725156	9.475201399481773e-05
C	1.1825757459977553	0.7025243142725158	-9.312798600518228e-05
C	1.1552084359977552	-0.7465598857274841	7.117201399481773e-05
C	-0.08861306400224467	-1.4079980957274842	-6.856798600518227e-05
C	2.4273322259977554	1.3595798042725158	7.186201399481773e-05
C	3.6268428959977554	0.6565562542725158	-5.814798600518228e-05
C	3.5994585359977553	-0.7929895657274841	6.366201399481773e-05
C	2.3742325459977556	-1.4502081657274841	-5.257798600518228e-05
C	4.898829385997756	1.3156012742725158	-8.137986005182279e-06
C	6.059685345997755	0.6003890842725158	1.1462013994817722e-05
C	6.0326926959977545	-0.8287451457274841	7.2420139948177205e-06
C	4.8456381259977555	-1.499627105727484	-3.510798600518228e-05
H	-0.11542263400224462	-2.491599245727484	6.072013994817721e-06
H	2.3527492359977553	-2.5364162157274843	3.832013994817721e-06
H	4.825757745997755	-2.585329495727484	1.3452013994817721e-05
H	4.920049765997755	2.401269584272516	-8.327986005182279e-06
H	2.446984545997755	2.4458265742725156	-9.127986005182278e-06
H	-0.021264944002244768	2.494257154272516	-9.697986005182279e-06
F	-2.488512154002245	2.791053004272516	-1.719798600518228e-05
F	-4.854682634002245	1.4337307342725158	9.042013994817721e-06
F	-4.905342464002246	-1.249535965727484	-2.365798600518228e-05
F	-2.591899024002245	-2.6951448757274843	3.285201399481772e-05
H	7.015990205997756	1.1132428042725158	7.08201399481772e-06
H	6.968982535997755	-1.377274965727484	-3.857986005182279e-06
C	-0.013575391962771282	-0.7135176172270009	-13.56422215217934
C	0.013545487712761988	0.713437660703993	-13.564226422386382
C	0.026340175231163224	1.398856593904399	-12.390045535745948
C	0.013795060892484797	0.7244371038224934	-11.132353106621474
C	-0.013799292441309426	-0.7243042250462309	-11.13232043604756
C	-0.026296593854122235	-1.3988304788055288	-12.389956936414624
C	0.026515553295477792	1.4092505028089428	-9.925765360188077
C	0.013775648915490516	0.7246008560106523	-8.694637642819195
C	-0.013750788658551259	-0.7244803392696307	-8.694645409068494
C	-0.026539430208307523	-1.4091611572631664	-9.925759163827387
C	0.02645665146536647	1.4049186392957118	-7.462506341137731
C	0.013744093689844762	0.7247825601678559	-6.249938289049748
C	-0.013748580913211435	-0.7247612145674045	-6.249954388163091
C	-0.02647444324391339	-1.4048725139120288	-7.462555600928806
C	0.026587313748133497	1.407600928720745	-4.9906193862710975
C	0.013481328181846542	0.7145538148698858	-3.8164690687641754
C	-0.013499917150587694	-0.7145806304620875	-3.816478841553086
C	-0.026543957530071938	-1.4076285839449871	-4.99065750997991
H	-0.047077292986929725	-2.4928807205625056	-9.932108589849657
H	-0.04704138802724755	-2.4910978653100253	-7.463530505040047
H	-0.04709293779135015	-2.4933183502982152	-4.990039315168055
H	0.04708776690131651	2.4932828313511743	-4.989897176522776
H	0.04704825019920281	2.4911476750251556	-7.463362831687213
H	0.04708333633236089	2.4929756239047567	-9.932086737541528
F	0.0518137656077576	2.743099115617183	-12.404496985420854
F	0.02532391977728774	1.3416023308700729	-14.744623378623004
F	-0.02530985720157524	-1.341664861080716	-14.744621591790784
F	-0.05182869994809109	-2.743093938492302	-12.404301321847266
H	0.023506968350921625	1.2452738302810409	-2.870015860635095
H	-0.023509000852842597	-1.2452437830409417	-2.8700011266658407
