60
4cene_F2 PD long+short
C	-3.7132936240022443	-0.6436737357274842	0.00010277201399481773
C	-3.6863560940022446	0.7832850042725159	-7.375798600518228e-05
C	-2.4994433840022445	1.4465359142725158	7.387201399481773e-05
C	-1.2547084240022448	0.7483782542725158	-0.00011562798600518227
C	-1.2820289140022445	-0.7003682457274841	0.00012299201399481772
C	-2.552176674002245	-1.351149335727484	-0.00011632798600518227
C	-0.035406084002244764	1.4104106942725156	9.475201399481773e-05
C	1.1825757459977553	0.7025243142725158	-9.312798600518228e-05
C	1.1552084359977552	-0.7465598857274841	7.117201399481773e-05
C	-0.08861306400224467	-1.4079980957274842	-6.856798600518227e-05
C	2.4273322259977554	1.3595798042725158	7.186201399481773e-05
C	3.6268428959977554	0.6565562542725158	-5.814798600518228e-05
C	3.5994585359977553	-0.7929895657274841	6.366201399481773e-05
C	2.3742325459977556	-1.4502081657274841	-5.257798600518228e-05
C	4.898829385997756	1.3156012742725158	-8.137986005182279e-06
C	6.059685345997755	0.6003890842725158	1.1462013994817722e-05
C	6.0326926959977545	-0.8287451457274841	7.2420139948177205e-06
C	4.8456381259977555	-1.499627105727484	-3.510798600518228e-05
H	-0.11542263400224462	-2.491599245727484	6.072013994817721e-06
H	2.3527492359977553	-2.5364162157274843	3.832013994817721e-06
H	4.825757745997755	-2.585329495727484	1.3452013994817721e-05
H	4.920049765997755	2.401269584272516	-8.327986005182279e-06
H	2.446984545997755	2.4458265742725156	-9.127986005182278e-06
H	-0.021264944002244768	2.494257154272516	-9.697986005182279e-06
F	-2.488512154002245	2.791053004272516	-1.719798600518228e-05
F	-4.854682634002245	1.4337307342725158	9.042013994817721e-06
F	-4.905342464002246	-1.249535965727484	-2.365798600518228e-05
F	-2.591899024002245	-2.6951448757274843	3.285201399481772e-05
H	7.015990205997756	1.1132428042725158	7.08201399481772e-06
H	6.968982535997755	-1.377274965727484	-3.857986005182279e-06
C	0.293177533814692	-2.8214970024037522	3.5001009988347223
C	0.3201150638146917	-1.3945382624037517	3.499924468834722
C	1.5070277738146918	-0.7312873524037519	3.500072098834722
C	2.7517627338146915	-1.4294450124037519	3.499882598834722
C	2.724442243814692	-2.878191512403752	3.5001212188347224
C	1.4542944838146914	-3.5289726024037518	3.499881898834722
C	3.9710650738146915	-0.767412572403752	3.500092978834722
C	5.189046903814692	-1.4752989524037516	3.4999050988347222
C	5.161679593814692	-2.924383152403752	3.500069398834722
C	3.9178580938146914	-3.585821362403752	3.499929658834722
C	6.433803383814692	-0.8182434624037519	3.5000700888347223
C	7.633314053814692	-1.5212670124037517	3.4999400788347224
C	7.6059296938146925	-2.970812832403752	3.5000618888347224
C	6.380703703814692	-3.628031432403752	3.4999456488347223
C	8.905300543814691	-0.8622219924037519	3.499990088834722
C	10.06615650381469	-1.5774341824037517	3.500009688834722
C	10.03916385381469	-3.006568412403752	3.500005468834722
C	8.852109283814693	-3.6774503724037517	3.499963118834722
H	3.8910485238146917	-4.669422512403751	3.500004298834722
H	6.359220393814692	-4.714239482403752	3.5000020588347223
H	8.832228903814693	-4.7631527624037515	3.500011678834722
H	8.92652092381469	0.2234463175962481	3.499989898834722
H	6.453455703814692	0.2680033075962479	3.499989098834722
H	3.9852062138146915	0.31643388759624813	3.4999885288347223
F	1.5179590038146915	0.6132297375962482	3.499981028834722
F	-0.8482114761853086	-0.7440925324037518	3.500007268834722
F	-0.8988713061853093	-3.427359232403752	3.4999745688347224
F	1.4145721338146915	-4.872968142403752	3.500031078834722
H	11.022461363814694	-1.0645804624037518	3.500005308834722
H	10.975453693814691	-3.555098232403752	3.4999943688347224
