60
4cene_F2 TL90.0
C	-3.7132936240022443	-0.6436737357274842	0.00010277201399481773
C	-3.6863560940022446	0.7832850042725159	-7.375798600518228e-05
C	-2.4994433840022445	1.4465359142725158	7.387201399481773e-05
C	-1.2547084240022448	0.7483782542725158	-0.00011562798600518227
C	-1.2820289140022445	-0.7003682457274841	0.00012299201399481772
C	-2.552176674002245	-1.351149335727484	-0.00011632798600518227
C	-0.035406084002244764	1.4104106942725156	9.475201399481773e-05
C	1.1825757459977553	0.7025243142725158	-9.312798600518228e-05
C	1.1552084359977552	-0.7465598857274841	7.117201399481773e-05
C	-0.08861306400224467	-1.4079980957274842	-6.856798600518227e-05
C	2.4273322259977554	1.3595798042725158	7.186201399481773e-05
C	3.6268428959977554	0.6565562542725158	-5.814798600518228e-05
C	3.5994585359977553	-0.7929895657274841	6.366201399481773e-05
C	2.3742325459977556	-1.4502081657274841	-5.257798600518228e-05
C	4.898829385997756	1.3156012742725158	-8.137986005182279e-06
C	6.059685345997755	0.6003890842725158	1.1462013994817722e-05
C	6.0326926959977545	-0.8287451457274841	7.2420139948177205e-06
C	4.8456381259977555	-1.499627105727484	-3.510798600518228e-05
H	-0.11542263400224462	-2.491599245727484	6.072013994817721e-06
H	2.3527492359977553	-2.5364162157274843	3.832013994817721e-06
H	4.825757745997755	-2.585329495727484	1.3452013994817721e-05
H	4.920049765997755	2.401269584272516	-8.327986005182279e-06
H	2.446984545997755	2.4458265742725156	-9.127986005182278e-06
H	-0.021264944002244768	2.494257154272516	-9.697986005182279e-06
F	-2.488512154002245	2.791053004272516	-1.719798600518228e-05
F	-4.854682634002245	1.4337307342725158	9.042013994817721e-06
F	-4.905342464002246	-1.249535965727484	-2.365798600518228e-05
F	-2.591899024002245	-2.6951448757274843	3.285201399481772e-05
H	7.015990205997756	1.1132428042725158	7.08201399481772e-06
H	6.968982535997755	-1.377274965727484	-3.857986005182279e-06
C	-3.6998227159426667	0.06976062420055398	-6.687253876340098
C	-3.6998249888681976	0.06993722858114977	-5.260040901289264
C	-2.52585677806167	0.047623352682643325	-4.574501476071358
C	-1.2683842695567067	0.024069984828982274	-5.249036429939658
C	-1.26835475306676	0.02383076498360694	-6.698040511810457
C	-2.5257619845033163	0.04781179674400064	-7.372683662709827
C	-0.06201615811455636	0.0010815907108312798	-4.564103801403872
C	1.1688963516452573	-0.021971906199576653	-5.2488707910401615
C	1.1688868418541405	-0.022136055925563478	-6.698213396604904
C	-0.062004240880518244	0.0012447148061316446	-7.383014777329135
C	2.4008043273824726	-0.04539713184402508	-4.568433698590482
C	3.6131593826220176	-0.06815811745879366	-5.248687426084874
C	3.6131423440139323	-0.06827962745645497	-6.698491891257597
C	2.4007600562970537	-0.04527183376181822	-7.3787233651904565
C	4.872252282697312	-0.09198163334137337	-4.565747106070529
C	6.046193637401713	-0.11416694933789405	-5.258917030724799
C	6.046185284084476	-0.11416257086300441	-6.688306148649157
C	4.872217310756403	-0.09195399821340032	-7.3814779420061045
H	-0.06835292978922292	0.0012899339411335882	-8.466928935830815
H	2.3997852780157873	-0.045309848590949456	-8.465143409205488
H	4.872835495188386	-0.09201423908580318	-8.467362155786642
H	4.872973350831517	-0.09199505811790078	-3.4798716695004974
H	2.3999485013895594	-0.045299968174595896	-3.482009507172928
H	-0.06833545180718685	0.0013053767423555826	-3.480183533094495
F	-2.540305191745629	0.047987245884761366	-3.2300176285265536
F	-4.880013741474247	0.09213808624389805	-4.631766925431071
F	-4.880008825368331	0.0921706992491015	-7.315511809298767
F	-2.5401053712954735	0.047933414064496006	-8.717189576177166
H	6.992477766833797	-0.132029783026763	-4.728101442262844
H	6.992495036515919	-0.13201916715343767	-7.219062799537048
