60
4cene_F2 PD long
C	-3.7132936240022443	-0.6436737357274842	0.00010277201399481773
C	-3.6863560940022446	0.7832850042725159	-7.375798600518228e-05
C	-2.4994433840022445	1.4465359142725158	7.387201399481773e-05
C	-1.2547084240022448	0.7483782542725158	-0.00011562798600518227
C	-1.2820289140022445	-0.7003682457274841	0.00012299201399481772
C	-2.552176674002245	-1.351149335727484	-0.00011632798600518227
C	-0.035406084002244764	1.4104106942725156	9.475201399481773e-05
C	1.1825757459977553	0.7025243142725158	-9.312798600518228e-05
C	1.1552084359977552	-0.7465598857274841	7.117201399481773e-05
C	-0.08861306400224467	-1.4079980957274842	-6.856798600518227e-05
C	2.4273322259977554	1.3595798042725158	7.186201399481773e-05
C	3.6268428959977554	0.6565562542725158	-5.814798600518228e-05
C	3.5994585359977553	-0.7929895657274841	6.366201399481773e-05
C	2.3742325459977556	-1.4502081657274841	-5.257798600518228e-05
C	4.898829385997756	1.3156012742725158	-8.137986005182279e-06
C	6.059685345997755	0.6003890842725158	1.1462013994817722e-05
C	6.0326926959977545	-0.8287451457274841	7.2420139948177205e-06
C	4.8456381259977555	-1.499627105727484	-3.510798600518228e-05
H	-0.11542263400224462	-2.491599245727484	6.072013994817721e-06
H	2.3527492359977553	-2.5364162157274843	3.832013994817721e-06
H	4.825757745997755	-2.585329495727484	1.3452013994817721e-05
H	4.920049765997755	2.401269584272516	-8.327986005182279e-06
H	2.446984545997755	2.4458265742725156	-9.127986005182278e-06
H	-0.021264944002244768	2.494257154272516	-9.697986005182279e-06
F	-2.488512154002245	2.791053004272516	-1.719798600518228e-05
F	-4.854682634002245	1.4337307342725158	9.042013994817721e-06
F	-4.905342464002246	-1.249535965727484	-2.365798600518228e-05
F	-2.591899024002245	-2.6951448757274843	3.285201399481772e-05
H	7.015990205997756	1.1132428042725158	7.08201399481772e-06
H	6.968982535997755	-1.377274965727484	-3.857986005182279e-06
C	0.3328555057856404	-0.7200741845058046	3.5001029001484825
C	0.35979303578564004	0.7068845554941955	3.4999263701484824
C	1.5467057457856401	1.3701354654941955	3.5000740001484822
C	2.79144070578564	0.6719778054941954	3.4998845001484824
C	2.76412021578564	-0.7767686945058045	3.500123120148482
C	1.4939724557856398	-1.4275497845058043	3.499883800148482
C	4.01074304578564	1.3340102454941953	3.5000948801484824
C	5.22872487578564	0.6261238654941954	3.4999070001484824
C	5.20135756578564	-0.8229603345058045	3.5000713001484822
C	3.9575360657856398	-1.4843985445058046	3.4999315601484824
C	6.4734813557856405	1.2831793554941955	3.5000719901484825
C	7.672992025785641	0.5801558054941954	3.499941980148482
C	7.64560766578564	-0.8693900145058046	3.500063790148482
C	6.420381675785641	-1.5266086145058044	3.4999475501484825
C	8.94497851578564	1.2392008254941955	3.4999919901484824
C	10.10583447578564	0.5239886354941954	3.5000115901484823
C	10.07884182578564	-0.9051455945058046	3.500007370148482
C	8.89178725578564	-1.5760275545058042	3.4999650201484824
H	3.93072649578564	-2.567999694505805	3.500006200148482
H	6.398898365785641	-2.612816664505805	3.5000039601484825
H	8.87190687578564	-2.661729944505805	3.500013580148482
H	8.96619889578564	2.324869135494195	3.499991800148482
H	6.49313367578564	2.369426125494195	3.499991000148482
H	4.02488418578564	2.417856705494195	3.499990430148482
F	1.5576369757856399	2.714652555494195	3.4999829301484824
F	-0.8085335042143602	1.3573302854941955	3.5000091701484823
F	-0.859193334214361	-1.3259364145058044	3.499976470148482
F	1.4542501057856398	-2.771545324505805	3.5000329801484824
H	11.062139335785641	1.0368423554941955	3.5000072101484823
H	11.01513166578564	-1.4536754145058044	3.499996270148482
