60
4cene_F2 TS90.0
C	-3.7132936240022443	-0.6436737357274842	0.00010277201399481773
C	-3.6863560940022446	0.7832850042725159	-7.375798600518228e-05
C	-2.4994433840022445	1.4465359142725158	7.387201399481773e-05
C	-1.2547084240022448	0.7483782542725158	-0.00011562798600518227
C	-1.2820289140022445	-0.7003682457274841	0.00012299201399481772
C	-2.552176674002245	-1.351149335727484	-0.00011632798600518227
C	-0.035406084002244764	1.4104106942725156	9.475201399481773e-05
C	1.1825757459977553	0.7025243142725158	-9.312798600518228e-05
C	1.1552084359977552	-0.7465598857274841	7.117201399481773e-05
C	-0.08861306400224467	-1.4079980957274842	-6.856798600518227e-05
C	2.4273322259977554	1.3595798042725158	7.186201399481773e-05
C	3.6268428959977554	0.6565562542725158	-5.814798600518228e-05
C	3.5994585359977553	-0.7929895657274841	6.366201399481773e-05
C	2.3742325459977556	-1.4502081657274841	-5.257798600518228e-05
C	4.898829385997756	1.3156012742725158	-8.137986005182279e-06
C	6.059685345997755	0.6003890842725158	1.1462013994817722e-05
C	6.0326926959977545	-0.8287451457274841	7.2420139948177205e-06
C	4.8456381259977555	-1.499627105727484	-3.510798600518228e-05
H	-0.11542263400224462	-2.491599245727484	6.072013994817721e-06
H	2.3527492359977553	-2.5364162157274843	3.832013994817721e-06
H	4.825757745997755	-2.585329495727484	1.3452013994817721e-05
H	4.920049765997755	2.401269584272516	-8.327986005182279e-06
H	2.446984545997755	2.4458265742725156	-9.127986005182278e-06
H	-0.021264944002244768	2.494257154272516	-9.697986005182279e-06
F	-2.488512154002245	2.791053004272516	-1.719798600518228e-05
F	-4.854682634002245	1.4337307342725158	9.042013994817721e-06
F	-4.905342464002246	-1.249535965727484	-2.365798600518228e-05
F	-2.591899024002245	-2.6951448757274843	3.285201399481772e-05
H	7.015990205997756	1.1132428042725158	7.08201399481772e-06
H	6.968982535997755	-1.377274965727484	-3.857986005182279e-06
C	-0.013576267950994984	-0.713533863668861	4.410402440277461
C	0.013544611724538287	0.7134214142621329	4.410398170070421
C	0.026339299242939523	1.398840347462539	5.584579056710854
C	0.013794184904261096	0.7244208573806333	6.842271485835328
C	-0.013800168429533128	-0.724320471488091	6.8423041564092415
C	-0.026297469842345936	-1.3988467252473888	5.584667656042179
C	0.02651467730725409	1.4092342563670828	8.048859232268725
C	0.013774772927266815	0.7245846095687922	9.279986949637607
C	-0.01375166464677496	-0.7244965857114908	9.279979183388308
C	-0.026540306196531225	-1.4091774037050264	8.048865428629416
C	0.026455775477142767	1.4049023928538518	10.512118251319071
C	0.01374321770162106	0.7247663137259959	11.724686303407054
C	-0.013749456901435137	-0.7247774610092645	11.724670204293712
C	-0.02647531923213709	-1.4048887603538889	10.512068991527997
C	0.026586437759909796	1.407584682278885	12.984005206185705
C	0.01348045219362284	0.7145375684280257	14.158155523692628
C	-0.013500793138811395	-0.7145968769039476	14.158145750903717
C	-0.02654483351829564	-1.4076448303868472	12.983967082476891
H	-0.04707816897515343	-2.4928969670043655	8.042516002607146
H	-0.04704226401547125	-2.491114111751885	10.511094087416755
H	-0.047093813779573855	-2.493334596740075	12.984585277288748
H	0.04708689091309281	2.4932665849093145	12.984727415934026
H	0.047047374210979105	2.4911314285832957	10.511261760769589
H	0.04708246034413719	2.492959377462897	8.042537854915274
F	0.0518128896195339	2.743082869175323	5.570127607035948
F	0.02532304378906404	1.3415860844282128	3.2300012138337975
F	-0.025310733189798942	-1.341681107522576	3.2300030006660183
F	-0.05182957593631479	-2.743110184934162	5.570323270609537
H	0.023506092362697923	1.2452575838391808	15.104608731821706
H	-0.0235098768410663	-1.2452600294828018	15.104623465790961
