60
4cene_F2 cofacial 3.5A
C	-3.7132936240022443	-0.6436737357274842	0.00010277201399481773
C	-3.6863560940022446	0.7832850042725159	-7.375798600518228e-05
C	-2.4994433840022445	1.4465359142725158	7.387201399481773e-05
C	-1.2547084240022448	0.7483782542725158	-0.00011562798600518227
C	-1.2820289140022445	-0.7003682457274841	0.00012299201399481772
C	-2.552176674002245	-1.351149335727484	-0.00011632798600518227
C	-0.035406084002244764	1.4104106942725156	9.475201399481773e-05
C	1.1825757459977553	0.7025243142725158	-9.312798600518228e-05
C	1.1552084359977552	-0.7465598857274841	7.117201399481773e-05
C	-0.08861306400224467	-1.4079980957274842	-6.856798600518227e-05
C	2.4273322259977554	1.3595798042725158	7.186201399481773e-05
C	3.6268428959977554	0.6565562542725158	-5.814798600518228e-05
C	3.5994585359977553	-0.7929895657274841	6.366201399481773e-05
C	2.3742325459977556	-1.4502081657274841	-5.257798600518228e-05
C	4.898829385997756	1.3156012742725158	-8.137986005182279e-06
C	6.059685345997755	0.6003890842725158	1.1462013994817722e-05
C	6.0326926959977545	-0.8287451457274841	7.2420139948177205e-06
C	4.8456381259977555	-1.499627105727484	-3.510798600518228e-05
H	-0.11542263400224462	-2.491599245727484	6.072013994817721e-06
H	2.3527492359977553	-2.5364162157274843	3.832013994817721e-06
H	4.825757745997755	-2.585329495727484	1.3452013994817721e-05
H	4.920049765997755	2.401269584272516	-8.327986005182279e-06
H	2.446984545997755	2.4458265742725156	-9.127986005182278e-06
H	-0.021264944002244768	2.494257154272516	-9.697986005182279e-06
F	-2.488512154002245	2.791053004272516	-1.719798600518228e-05
F	-4.854682634002245	1.4337307342725158	9.042013994817721e-06
F	-4.905342464002246	-1.249535965727484	-2.365798600518228e-05
F	-2.591899024002245	-2.6951448757274843	3.285201399481772e-05
H	7.015990205997756	1.1132428042725158	7.08201399481772e-06
H	6.968982535997755	-1.377274965727484	-3.857986005182279e-06
C	-3.71329379457375	-0.6436768992175598	3.500102772012561
C	-3.6863562645737504	0.7832818407824403	3.499926242012561
C	-2.4994435545737503	1.4465327507824404	3.500073872012561
C	-1.2547085945737506	0.7483750907824402	3.499884372012561
C	-1.2820290845737503	-0.7003714092175597	3.5001229920125607
C	-2.5521768445737507	-1.3511524992175594	3.499883672012561
C	-0.035406254573750566	1.4104075307824402	3.500094752012561
C	1.1825755754262495	0.7025211507824403	3.499906872012561
C	1.1552082654262494	-0.7465630492175597	3.500071172012561
C	-0.08861323457375046	-1.4080012592175597	3.499931432012561
C	2.4273320554262496	1.3595766407824403	3.500071862012561
C	3.6268427254262496	0.6565530907824403	3.4999418520125607
C	3.5994583654262495	-0.7929927292175597	3.5000636620125607
C	2.3742323754262498	-1.4502113292175596	3.499947422012561
C	4.89882921542625	1.3155981107824404	3.499991862012561
C	6.0596851754262495	0.6003859207824402	3.500011462012561
C	6.032692525426249	-0.8287483092175597	3.5000072420125607
C	4.84563795542625	-1.4996302692175594	3.499964892012561
H	-0.11542280457375041	-2.4916024092175597	3.5000060720125608
H	2.3527490654262495	-2.53641937921756	3.500003832012561
H	4.82575757542625	-2.58533265921756	3.5000134520125608
H	4.920049595426249	2.40126642078244	3.499991672012561
H	2.4469843754262492	2.44582341078244	3.4999908720125608
H	-0.02126511457375057	2.49425399078244	3.4999903020125607
F	-2.4885123245737506	2.7910498407824402	3.499982802012561
F	-4.85468280457375	1.4337275707824404	3.500009042012561
F	-4.905342634573751	-1.2495391292175595	3.4999763420125607
F	-2.5918991945737506	-2.69514803921756	3.500032852012561
H	7.015990035426251	1.1132396407824403	3.500007082012561
H	6.96898236542625	-1.3772781292175595	3.4999961420125607
