60
4cene_F2 TS45.0anti
C	-3.7132936240022443	-0.6436737357274842	0.00010277201399481773
C	-3.6863560940022446	0.7832850042725159	-7.375798600518228e-05
C	-2.4994433840022445	1.4465359142725158	7.387201399481773e-05
C	-1.2547084240022448	0.7483782542725158	-0.00011562798600518227
C	-1.2820289140022445	-0.7003682457274841	0.00012299201399481772
C	-2.552176674002245	-1.351149335727484	-0.00011632798600518227
C	-0.035406084002244764	1.4104106942725156	9.475201399481773e-05
C	1.1825757459977553	0.7025243142725158	-9.312798600518228e-05
C	1.1552084359977552	-0.7465598857274841	7.117201399481773e-05
C	-0.08861306400224467	-1.4079980957274842	-6.856798600518227e-05
C	2.4273322259977554	1.3595798042725158	7.186201399481773e-05
C	3.6268428959977554	0.6565562542725158	-5.814798600518228e-05
C	3.5994585359977553	-0.7929895657274841	6.366201399481773e-05
C	2.3742325459977556	-1.4502081657274841	-5.257798600518228e-05
C	4.898829385997756	1.3156012742725158	-8.137986005182279e-06
C	6.059685345997755	0.6003890842725158	1.1462013994817722e-05
C	6.0326926959977545	-0.8287451457274841	7.2420139948177205e-06
C	4.8456381259977555	-1.499627105727484	-3.510798600518228e-05
H	-0.11542263400224462	-2.491599245727484	6.072013994817721e-06
H	2.3527492359977553	-2.5364162157274843	3.832013994817721e-06
H	4.825757745997755	-2.585329495727484	1.3452013994817721e-05
H	4.920049765997755	2.401269584272516	-8.327986005182279e-06
H	2.446984545997755	2.4458265742725156	-9.127986005182278e-06
H	-0.021264944002244768	2.494257154272516	-9.697986005182279e-06
F	-2.488512154002245	2.791053004272516	-1.719798600518228e-05
F	-4.854682634002245	1.4337307342725158	9.042013994817721e-06
F	-4.905342464002246	-1.249535965727484	-2.365798600518228e-05
F	-2.591899024002245	-2.6951448757274843	3.285201399481772e-05
H	7.015990205997756	1.1132428042725158	7.08201399481772e-06
H	6.968982535997755	-1.377274965727484	-3.857986005182279e-06
C	-2.629713821099433	-0.6641241785283436	-10.109701524428155
C	-2.602648946447531	0.7628321569726502	-10.109829904261689
C	-1.7596883342476575	1.4325766403059916	-9.279454503678219
C	-0.8831239642906086	0.7413697810872883	-8.390265402382019
C	-0.910624031880021	-0.7073733281802868	-8.390073028031242
C	-1.8123156328477712	-1.3651106110764932	-9.279525297712533
C	-0.017308144049435988	1.410075797697526	-7.536930520304093
C	0.8402811790326856	0.7089933737571148	-6.666524357483578
C	0.8127986755086762	-0.7400886511706996	-6.666413128333836
C	-0.070404024069476	-1.4083350900826739	-7.537040567240314
C	1.7241030239051511	1.3728630554513186	-5.795159548166437
C	2.5686153096848896	0.6765416243827739	-4.937836131944303
C	2.541148235560364	-0.7730026338100868	-4.937760839813306
C	1.6711032041074374	-1.4369268000594635	-5.795281319442408
C	3.4717868102218454	1.3425496114019038	-4.047328089602814
C	4.288788892089192	0.633829140187764	-3.2170643189355026
C	4.261800794607721	-0.7953051757658718	-3.217073677734927
C	3.418623234985885	-1.4726792913111133	-4.047373062742717
H	-0.0954079709733099	-2.4919703288366484	-7.541477104841183
H	1.6498645226367599	-2.5231394683697417	-5.795930385772012
H	3.3985265090611465	-2.5583775967629623	-4.046901189009708
H	3.49279681402018	2.428221893154122	-4.046817951423495
H	1.744064400474938	2.459103990532879	-5.795822854106695
H	-0.0012410208670803346	2.493885896302376	-7.541474672548713
F	-1.7444595260064135	2.777012594892254	-9.28973812173812
F	-3.425364789688779	1.4067530008753606	-10.94443828348329
F	-3.4760044519941427	-1.2765140799312718	-10.944459136786385
F	-1.8479440416010215	-2.7091834415282245	-9.289562319943787
H	4.967936991596589	1.1519153843789127	-2.547824133417593
H	4.920930488300235	-1.3386024076633478	-2.5478205173053166
