78
53 cofacial 5.0A
C	-0.7222348972377057	0.09262856252267082	4.334137640591114e-06
C	0.7280247427622941	0.01358869252267092	-5.1158623594088865e-06
C	1.190862222762294	-1.3267804674773291	-3.845862359408887e-06
S	-0.1362209372377059	-2.496357807477329	-4.785862359408886e-06
C	-1.3282415772377059	-1.189450867477329	-4.235862359408886e-06
C	1.6573559027622942	1.0576931125226707	7.744137640591113e-06
C	3.009404232762294	0.7446147925226709	-6.835862359408887e-06
C	3.471866012762294	-0.5957807174773291	8.974137640591115e-06
C	2.542190522762294	-1.6396814674773292	-4.355862359408887e-06
C	-1.532462467237706	1.231508172522671	-7.565862359408887e-06
C	-2.910461677237706	1.067389072522671	7.644137640591114e-06
C	-3.5162667772377056	-0.2146318474773291	-7.925862359408886e-06
C	-2.7056499572377057	-1.3534983574773292	6.3041376405911135e-06
S	4.339085532762294	1.910488662522671	8.041376405911135e-07
C	5.525701192762294	0.6010213025226709	6.074137640591113e-06
C	4.922230362762294	-0.674193897477329	-3.6758623594088867e-06
S	-4.104731847237707	2.371348302522671	-1.5258623594088865e-06
C	-5.427074997237707	1.1993262625226708	-7.465862359408886e-06
C	-4.966585847237706	-0.1342330674773291	5.484137640591114e-06
H	-3.1461864072377064	-2.344694497477329	6.641376405911136e-07
H	2.8723774827622943	-2.672954447477329	-1.5858623594088864e-06
H	1.327615522762294	2.0912046725226707	8.074137640591113e-06
H	-1.092403867237706	2.222978052522671	2.6141376405911136e-06
C	-6.788153517237706	1.5015880025226709	3.8241376405911135e-06
C	-7.701795697237706	0.4544302525226709	4.054137640591114e-06
C	-7.263922077237707	-0.8767917574773291	-1.2758623594088864e-06
C	-5.908333477237706	-1.172503477477329	7.164137640591114e-06
C	6.911716412762294	0.752545592522671	-4.835862359408887e-06
C	7.705277192762294	-0.3883957774773291	4.784137640591114e-06
C	7.124372652762293	-1.6636950074773291	3.854137640591114e-06
C	5.744620062762294	-1.8092570674773292	-1.8586235940888645e-07
H	-7.1291579072377065	2.531360122522671	-4.745862359408887e-06
H	-8.764606597237707	0.6728709325226709	2.9541376405911133e-06
H	-7.991010197237706	-1.6819659974773291	5.834137640591114e-06
H	-5.5792314472377065	-2.206806327477329	5.141376405911135e-07
H	5.3041720427622945	-2.801263217477329	9.741376405911135e-07
H	7.759087152762294	-2.5435081274773292	3.0641376405911136e-06
H	8.785634922762293	-0.28804729747732905	2.9541376405911133e-06
H	7.363247702762294	1.738887522522671	-8.586235940888645e-08
C	-0.7222348758235902	0.0926272453896014	5.000004334137468
C	0.7280247641764096	0.013587375389601504	4.999994884137467
C	1.1908622441764096	-1.3267817846103986	4.999996154137468
S	-0.1362209158235904	-2.4963591246103984	4.999995214137467
C	-1.3282415558235903	-1.1894521846103985	4.999995764137467
C	1.6573559241764098	1.0576917953896012	5.000007744137467
C	3.009404254176409	0.7446134753896015	4.999993164137467
C	3.471866034176409	-0.5957820346103985	5.000008974137468
C	2.5421905441764094	-1.6396827846103987	4.999995644137467
C	-1.5324624458235905	1.2315068553896016	4.999992434137467
C	-2.9104616558235907	1.0673877553896014	5.000007644137467
C	-3.5162667558235903	-0.21463316461039852	4.9999920741374675
C	-2.7056499358235904	-1.3534996746103987	5.000006304137467
S	4.3390855541764095	1.9104873453896014	5.000000804137468
C	5.52570121417641	0.6010199853896016	5.000006074137468
C	4.92223038417641	-0.6741952146103984	4.999996324137467
S	-4.104731825823591	2.371346985389602	4.999998474137468
C	-5.427074975823591	1.1993249453896013	4.999992534137467
C	-4.96658582582359	-0.13423438461039852	5.000005484137468
H	-3.146186385823591	-2.3446958146103984	5.000000664137468
H	2.8723775041764097	-2.672955764610398	4.999998414137467
H	1.3276155441764097	2.0912033553896014	5.000008074137467
H	-1.0924038458235905	2.2229767353896017	5.000002614137467
C	-6.7881534958235905	1.5015866853896014	5.000003824137467
C	-7.701795675823591	0.4544289353896015	5.0000040541374675
C	-7.263922055823591	-0.8767930746103985	4.999998724137467
C	-5.90833345582359	-1.1725047946103986	5.000007164137467
C	6.91171643417641	0.7525442753896016	4.999995164137467
C	7.70527721417641	-0.3883970946103985	5.0000047841374675
C	7.124372674176409	-1.6636963246103986	5.000003854137468
C	5.74462008417641	-1.8092583846103987	4.9999998141374675
H	-7.129157885823591	2.5313588053896017	4.999995254137468
H	-8.764606575823592	0.6728696153896015	5.000002954137467
H	-7.9910101758235905	-1.6819673146103986	5.000005834137467
H	-5.579231425823591	-2.2068076446103984	5.000000514137468
H	5.30417206417641	-2.8012645346103984	5.000000974137468
H	7.75908717417641	-2.5435094446103985	5.000003064137467
H	8.785634944176408	-0.28804861461039843	5.000002954137467
H	7.36324772417641	1.7388862053896015	4.999999914137468
