78
53 TL90.0anti
C	-0.7222348972377057	0.09262856252267082	4.334137640591114e-06
C	0.7280247427622941	0.01358869252267092	-5.1158623594088865e-06
C	1.190862222762294	-1.3267804674773291	-3.845862359408887e-06
S	-0.1362209372377059	-2.496357807477329	-4.785862359408886e-06
C	-1.3282415772377059	-1.189450867477329	-4.235862359408886e-06
C	1.6573559027622942	1.0576931125226707	7.744137640591113e-06
C	3.009404232762294	0.7446147925226709	-6.835862359408887e-06
C	3.471866012762294	-0.5957807174773291	8.974137640591115e-06
C	2.542190522762294	-1.6396814674773292	-4.355862359408887e-06
C	-1.532462467237706	1.231508172522671	-7.565862359408887e-06
C	-2.910461677237706	1.067389072522671	7.644137640591114e-06
C	-3.5162667772377056	-0.2146318474773291	-7.925862359408886e-06
C	-2.7056499572377057	-1.3534983574773292	6.3041376405911135e-06
S	4.339085532762294	1.910488662522671	8.041376405911135e-07
C	5.525701192762294	0.6010213025226709	6.074137640591113e-06
C	4.922230362762294	-0.674193897477329	-3.6758623594088867e-06
S	-4.104731847237707	2.371348302522671	-1.5258623594088865e-06
C	-5.427074997237707	1.1993262625226708	-7.465862359408886e-06
C	-4.966585847237706	-0.1342330674773291	5.484137640591114e-06
H	-3.1461864072377064	-2.344694497477329	6.641376405911136e-07
H	2.8723774827622943	-2.672954447477329	-1.5858623594088864e-06
H	1.327615522762294	2.0912046725226707	8.074137640591113e-06
H	-1.092403867237706	2.222978052522671	2.6141376405911136e-06
C	-6.788153517237706	1.5015880025226709	3.8241376405911135e-06
C	-7.701795697237706	0.4544302525226709	4.054137640591114e-06
C	-7.263922077237707	-0.8767917574773291	-1.2758623594088864e-06
C	-5.908333477237706	-1.172503477477329	7.164137640591114e-06
C	6.911716412762294	0.752545592522671	-4.835862359408887e-06
C	7.705277192762294	-0.3883957774773291	4.784137640591114e-06
C	7.124372652762293	-1.6636950074773291	3.854137640591114e-06
C	5.744620062762294	-1.8092570674773292	-1.8586235940888645e-07
H	-7.1291579072377065	2.531360122522671	-4.745862359408887e-06
H	-8.764606597237707	0.6728709325226709	2.9541376405911133e-06
H	-7.991010197237706	-1.6819659974773291	5.834137640591114e-06
H	-5.5792314472377065	-2.206806327477329	5.141376405911135e-07
H	5.3041720427622945	-2.801263217477329	9.741376405911135e-07
H	7.759087152762294	-2.5435081274773292	3.0641376405911136e-06
H	8.785634922762293	-0.28804729747732905	2.9541376405911133e-06
H	7.363247702762294	1.738887522522671	-8.586235940888645e-08
C	-0.7251314117199704	0.039614288860487214	5.43593668378282
C	0.725117846051681	-0.0396155982150331	5.436136380111327
C	1.2595952751635262	-0.06881988088234715	4.123014525286973
S	0.00017581566369787358	-6.230018164716417e-06	2.882777380912621
C	-1.2594916001852905	0.06881947657068398	4.12270478990371
C	1.594803786247157	-0.08714675692969535	6.529387311669775
C	2.9598837615184066	-0.16171798996734485	6.290539004916146
C	3.493987251067188	-0.19091640284917977	4.977370342262379
C	2.623946936321867	-0.14336541096233976	3.884303991749551
C	-1.5949880562584118	0.08715381316155428	6.5289165065540455
C	-2.9599460074750366	0.16171774805602435	6.289862301403108
C	-3.4941080214151596	0.1909191182610895	4.976699827987248
C	-2.6238641262185056	0.14335610171438917	3.8837543220269004
S	4.222095011574036	-0.2306908898944728	7.527219941813566
C	5.476512698514437	-0.299235588187556	6.284441046548048
C	4.94430694233554	-0.27014693352778346	4.978201507900131
S	-4.221695148600164	0.2306669313560532	7.52672366288643
C	-5.476255256903784	0.29922008232901615	6.284304060345542
C	-4.9444907760082755	0.2701523334875327	4.977853775451128
H	-3.0090928527391156	0.16441004522387775	2.8700000561974925
H	3.0094392934562433	-0.16443088455543475	2.8705839277412104
H	1.2097435139246047	-0.06610799639877041	7.54336996442597
H	-1.2102509173172682	0.06612218245682228	7.54291803461704
C	-6.849749123072591	0.37425433211275094	6.51185923641661
C	-7.703627162711452	0.4209086623408602	5.416415466360963
C	-7.194537227352202	0.39309812246901954	4.111065184399564
C	-5.826874834383603	0.31836273583156643	3.889750759406269
C	6.850148677675265	-0.3742779833696971	6.511356529340394
C	7.70350058077912	-0.420913431012377	5.415408726789366
C	7.193798043102305	-0.39306315017084204	4.110316432897883
C	5.826082071970312	-0.3183292426692351	3.889695970747426
H	-7.245835683970931	0.395904465080649	7.521493487628508
H	-8.775174301086677	0.4794574236606345	5.576547014241671
H	-7.875599092835033	0.4303031569737659	3.2674223619635465
H	-5.4424075610990865	0.297362705267298	2.874943168676906
H	5.4409852671699745	-0.29728931729886426	2.875137725778677
H	7.874551873251447	-0.4302576835334445	3.266441790512995
H	8.775176196759777	-0.4794662777772743	5.574548855168788
H	7.2466040037536485	-0.3959444393924761	7.520863660496607
