78
53 cofacial 4.5A
C	-0.7222348972377057	0.09262856252267082	4.334137640591114e-06
C	0.7280247427622941	0.01358869252267092	-5.1158623594088865e-06
C	1.190862222762294	-1.3267804674773291	-3.845862359408887e-06
S	-0.1362209372377059	-2.496357807477329	-4.785862359408886e-06
C	-1.3282415772377059	-1.189450867477329	-4.235862359408886e-06
C	1.6573559027622942	1.0576931125226707	7.744137640591113e-06
C	3.009404232762294	0.7446147925226709	-6.835862359408887e-06
C	3.471866012762294	-0.5957807174773291	8.974137640591115e-06
C	2.542190522762294	-1.6396814674773292	-4.355862359408887e-06
C	-1.532462467237706	1.231508172522671	-7.565862359408887e-06
C	-2.910461677237706	1.067389072522671	7.644137640591114e-06
C	-3.5162667772377056	-0.2146318474773291	-7.925862359408886e-06
C	-2.7056499572377057	-1.3534983574773292	6.3041376405911135e-06
S	4.339085532762294	1.910488662522671	8.041376405911135e-07
C	5.525701192762294	0.6010213025226709	6.074137640591113e-06
C	4.922230362762294	-0.674193897477329	-3.6758623594088867e-06
S	-4.104731847237707	2.371348302522671	-1.5258623594088865e-06
C	-5.427074997237707	1.1993262625226708	-7.465862359408886e-06
C	-4.966585847237706	-0.1342330674773291	5.484137640591114e-06
H	-3.1461864072377064	-2.344694497477329	6.641376405911136e-07
H	2.8723774827622943	-2.672954447477329	-1.5858623594088864e-06
H	1.327615522762294	2.0912046725226707	8.074137640591113e-06
H	-1.092403867237706	2.222978052522671	2.6141376405911136e-06
C	-6.788153517237706	1.5015880025226709	3.8241376405911135e-06
C	-7.701795697237706	0.4544302525226709	4.054137640591114e-06
C	-7.263922077237707	-0.8767917574773291	-1.2758623594088864e-06
C	-5.908333477237706	-1.172503477477329	7.164137640591114e-06
C	6.911716412762294	0.752545592522671	-4.835862359408887e-06
C	7.705277192762294	-0.3883957774773291	4.784137640591114e-06
C	7.124372652762293	-1.6636950074773291	3.854137640591114e-06
C	5.744620062762294	-1.8092570674773292	-1.8586235940888645e-07
H	-7.1291579072377065	2.531360122522671	-4.745862359408887e-06
H	-8.764606597237707	0.6728709325226709	2.9541376405911133e-06
H	-7.991010197237706	-1.6819659974773291	5.834137640591114e-06
H	-5.5792314472377065	-2.206806327477329	5.141376405911135e-07
H	5.3041720427622945	-2.801263217477329	9.741376405911135e-07
H	7.759087152762294	-2.5435081274773292	3.0641376405911136e-06
H	8.785634922762293	-0.28804729747732905	2.9541376405911133e-06
H	7.363247702762294	1.738887522522671	-8.586235940888645e-08
C	-0.7222348779650017	0.09262737710290835	4.5000043341374845
C	0.7280247620349981	0.013587507102908446	4.499994884137484
C	1.190862242034998	-1.3267816528970917	4.499996154137484
S	-0.13622091796500194	-2.4963589928970915	4.499995214137484
C	-1.328241557965002	-1.1894520528970915	4.499995764137484
C	1.657355922034998	1.0576919271029082	4.500007744137484
C	3.0094042520349977	0.7446136071029085	4.499993164137484
C	3.4718660320349977	-0.5957819028970915	4.500008974137485
C	2.542190542034998	-1.6396826528970918	4.499995644137484
C	-1.5324624479650022	1.2315069871029085	4.499992434137484
C	-2.9104616579650022	1.0673878871029083	4.500007644137484
C	-3.5162667579650018	-0.21463303289709157	4.499992074137484
C	-2.705649937965002	-1.3534995428970917	4.500006304137484
S	4.339085552034998	1.9104874771029083	4.500000804137485
C	5.525701212034998	0.6010201171029085	4.5000060741374845
C	4.922230382034998	-0.6741950828970915	4.499996324137484
S	-4.1047318279650025	2.371347117102909	4.4999984741374845
C	-5.4270749779650025	1.1993250771029083	4.499992534137484
C	-4.966585827965002	-0.13423425289709157	4.500005484137485
H	-3.1461863879650025	-2.3446956828970915	4.500000664137485
H	2.872377502034998	-2.672955632897091	4.499998414137484
H	1.327615542034998	2.0912034871029084	4.500008074137484
H	-1.0924038479650022	2.2229768671029086	4.500002614137484
C	-6.788153497965002	1.5015868171029083	4.500003824137484
C	-7.701795677965002	0.4544290671029084	4.500004054137484
C	-7.263922057965003	-0.8767929428970915	4.499998724137484
C	-5.908333457965002	-1.1725046628970917	4.500007164137484
C	6.911716432034998	0.7525444071029085	4.499995164137484
C	7.705277212034998	-0.3883969628970916	4.500004784137484
C	7.124372672034998	-1.6636961928970917	4.500003854137485
C	5.744620082034999	-1.8092582528970917	4.499999814137484
H	-7.129157887965002	2.5313589371029086	4.499995254137485
H	-8.764606577965003	0.6728697471029085	4.500002954137484
H	-7.991010177965002	-1.6819671828970917	4.500005834137484
H	-5.579231427965002	-2.2068075128970914	4.500000514137485
H	5.304172062034999	-2.8012644028970914	4.5000009741374845
H	7.759087172034999	-2.5435093128970916	4.500003064137484
H	8.785634942034998	-0.2880484828970915	4.500002954137484
H	7.363247722034998	1.7388863371029084	4.499999914137485
