78
53 PD long+short
C	-0.7222348972377057	0.09262856252267082	4.334137640591114e-06
C	0.7280247427622941	0.01358869252267092	-5.1158623594088865e-06
C	1.190862222762294	-1.3267804674773291	-3.845862359408887e-06
S	-0.1362209372377059	-2.496357807477329	-4.785862359408886e-06
C	-1.3282415772377059	-1.189450867477329	-4.235862359408886e-06
C	1.6573559027622942	1.0576931125226707	7.744137640591113e-06
C	3.009404232762294	0.7446147925226709	-6.835862359408887e-06
C	3.471866012762294	-0.5957807174773291	8.974137640591115e-06
C	2.542190522762294	-1.6396814674773292	-4.355862359408887e-06
C	-1.532462467237706	1.231508172522671	-7.565862359408887e-06
C	-2.910461677237706	1.067389072522671	7.644137640591114e-06
C	-3.5162667772377056	-0.2146318474773291	-7.925862359408886e-06
C	-2.7056499572377057	-1.3534983574773292	6.3041376405911135e-06
S	4.339085532762294	1.910488662522671	8.041376405911135e-07
C	5.525701192762294	0.6010213025226709	6.074137640591113e-06
C	4.922230362762294	-0.674193897477329	-3.6758623594088867e-06
S	-4.104731847237707	2.371348302522671	-1.5258623594088865e-06
C	-5.427074997237707	1.1993262625226708	-7.465862359408886e-06
C	-4.966585847237706	-0.1342330674773291	5.484137640591114e-06
H	-3.1461864072377064	-2.344694497477329	6.641376405911136e-07
H	2.8723774827622943	-2.672954447477329	-1.5858623594088864e-06
H	1.327615522762294	2.0912046725226707	8.074137640591113e-06
H	-1.092403867237706	2.222978052522671	2.6141376405911136e-06
C	-6.788153517237706	1.5015880025226709	3.8241376405911135e-06
C	-7.701795697237706	0.4544302525226709	4.054137640591114e-06
C	-7.263922077237707	-0.8767917574773291	-1.2758623594088864e-06
C	-5.908333477237706	-1.172503477477329	7.164137640591114e-06
C	6.911716412762294	0.752545592522671	-4.835862359408887e-06
C	7.705277192762294	-0.3883957774773291	4.784137640591114e-06
C	7.124372652762293	-1.6636950074773291	3.854137640591114e-06
C	5.744620062762294	-1.8092570674773292	-1.8586235940888645e-07
H	-7.1291579072377065	2.531360122522671	-4.745862359408887e-06
H	-8.764606597237707	0.6728709325226709	2.9541376405911133e-06
H	-7.991010197237706	-1.6819659974773291	5.834137640591114e-06
H	-5.5792314472377065	-2.206806327477329	5.141376405911135e-07
H	5.3041720427622945	-2.801263217477329	9.741376405911135e-07
H	7.759087152762294	-2.5435081274773292	3.0641376405911136e-06
H	8.785634922762293	-0.28804729747732905	2.9541376405911133e-06
H	7.363247702762294	1.738887522522671	-8.586235940888645e-08
C	4.11598096971339	-1.9808437486948807	3.50000376720875
C	5.56624060971339	-2.0598836186948803	3.4999943172087495
C	6.02907808971339	-3.4002527786948806	3.49999558720875
S	4.70199492971339	-4.569830118694881	3.4999946472087498
C	3.5099742897133903	-3.2629231786948805	3.4999951972087495
C	6.49557176971339	-1.0157791986948808	3.5000071772087495
C	7.84762009971339	-1.3288575186948806	3.49999259720875
C	8.31008187971339	-2.6692530286948806	3.5000084072087496
C	7.38040638971339	-3.7131537786948807	3.49999507720875
C	3.30575339971339	-0.8419641386948805	3.4999918672087498
C	1.92775418971339	-1.0060832386948806	3.5000070772087497
C	1.3219490897133905	-2.2881041586948805	3.4999915072087497
C	2.1325659097133904	-3.4269706686948807	3.50000573720875
S	9.177301399713391	-0.16298364869488066	3.5000002372087495
C	10.36391705971339	-1.4724510086948805	3.5000055072087495
C	9.76044622971339	-2.7476662086948807	3.4999957572087497
S	0.7334840197133894	0.29787599130511955	3.4999979072087495
C	-0.5888591302866106	-0.8741460486948808	3.4999919672087496
C	-0.12836998028660987	-2.2077053786948806	3.5000049172087495
H	1.6920294597133898	-4.418166808694881	3.5000000972087495
H	7.71059334971339	-4.746426758694881	3.49999784720875
H	6.16583138971339	0.017732361305119144	3.5000075072087498
H	3.74581199971339	0.14950574130511943	3.5000020472087496
C	-1.9499376502866101	-0.5718843086948807	3.50000325720875
C	-2.8635798302866102	-1.6190420586948806	3.5000034872087498
C	-2.4257062102866107	-2.9502640686948807	3.4999981572087497
C	-1.07011761028661	-3.2459757886948806	3.5000065972087495
C	11.74993227971339	-1.3209267186948805	3.4999945972087496
C	12.54349305971339	-2.4618680886948807	3.5000042172087498
C	11.96258851971339	-3.7371673186948806	3.5000032872087496
C	10.582835929713392	-3.8827293786948807	3.4999992472087498
H	-2.2909420402866103	0.45788781130511935	3.4999946872087495
H	-3.926390730286611	-1.4006013786948805	3.50000238720875
H	-3.15279433028661	-3.7554383086948806	3.5000052672087496
H	-0.7410155802866103	-4.280278638694881	3.4999999472087495
H	10.14238790971339	-4.874735528694881	3.50000040720875
H	12.597303019713392	-4.616980438694881	3.5000024972087496
H	13.623850789713389	-2.3615196086948806	3.50000238720875
H	12.201463569713392	-0.3345847886948806	3.4999993472087496
