78
53 PD long
C	-0.7222348972377057	0.09262856252267082	4.334137640591114e-06
C	0.7280247427622941	0.01358869252267092	-5.1158623594088865e-06
C	1.190862222762294	-1.3267804674773291	-3.845862359408887e-06
S	-0.1362209372377059	-2.496357807477329	-4.785862359408886e-06
C	-1.3282415772377059	-1.189450867477329	-4.235862359408886e-06
C	1.6573559027622942	1.0576931125226707	7.744137640591113e-06
C	3.009404232762294	0.7446147925226709	-6.835862359408887e-06
C	3.471866012762294	-0.5957807174773291	8.974137640591115e-06
C	2.542190522762294	-1.6396814674773292	-4.355862359408887e-06
C	-1.532462467237706	1.231508172522671	-7.565862359408887e-06
C	-2.910461677237706	1.067389072522671	7.644137640591114e-06
C	-3.5162667772377056	-0.2146318474773291	-7.925862359408886e-06
C	-2.7056499572377057	-1.3534983574773292	6.3041376405911135e-06
S	4.339085532762294	1.910488662522671	8.041376405911135e-07
C	5.525701192762294	0.6010213025226709	6.074137640591113e-06
C	4.922230362762294	-0.674193897477329	-3.6758623594088867e-06
S	-4.104731847237707	2.371348302522671	-1.5258623594088865e-06
C	-5.427074997237707	1.1993262625226708	-7.465862359408886e-06
C	-4.966585847237706	-0.1342330674773291	5.484137640591114e-06
H	-3.1461864072377064	-2.344694497477329	6.641376405911136e-07
H	2.8723774827622943	-2.672954447477329	-1.5858623594088864e-06
H	1.327615522762294	2.0912046725226707	8.074137640591113e-06
H	-1.092403867237706	2.222978052522671	2.6141376405911136e-06
C	-6.788153517237706	1.5015880025226709	3.8241376405911135e-06
C	-7.701795697237706	0.4544302525226709	4.054137640591114e-06
C	-7.263922077237707	-0.8767917574773291	-1.2758623594088864e-06
C	-5.908333477237706	-1.172503477477329	7.164137640591114e-06
C	6.911716412762294	0.752545592522671	-4.835862359408887e-06
C	7.705277192762294	-0.3883957774773291	4.784137640591114e-06
C	7.124372652762293	-1.6636950074773291	3.854137640591114e-06
C	5.744620062762294	-1.8092570674773292	-1.8586235940888645e-07
H	-7.1291579072377065	2.531360122522671	-4.745862359408887e-06
H	-8.764606597237707	0.6728709325226709	2.9541376405911133e-06
H	-7.991010197237706	-1.6819659974773291	5.834137640591114e-06
H	-5.5792314472377065	-2.206806327477329	5.141376405911135e-07
H	5.3041720427622945	-2.801263217477329	9.741376405911135e-07
H	7.759087152762294	-2.5435081274773292	3.0641376405911136e-06
H	8.785634922762293	-0.28804729747732905	2.9541376405911133e-06
H	7.363247702762294	1.738887522522671	-8.586235940888645e-08
C	4.214534148411904	-0.17710960557630143	3.5000042419382416
C	5.664793788411903	-0.25614947557630136	3.4999947919382417
C	6.127631268411903	-1.5965186355763012	3.4999960619382415
S	4.8005481084119035	-2.7660959755763015	3.4999951219382415
C	3.608527468411904	-1.459189035576301	3.4999956719382417
C	6.5941249484119036	0.7879549444236985	3.5000076519382417
C	7.946173278411903	0.47487662442369866	3.4999930719382415
C	8.408635058411905	-0.8655188855763013	3.5000088819382413
C	7.478959568411903	-1.9094196355763013	3.4999955519382415
C	3.4043065784119038	0.9617700044236989	3.4999923419382415
C	2.0263073684119037	0.7976509044236987	3.5000075519382414
C	1.4205022684119042	-0.4843700155763014	3.4999919819382415
C	2.231119088411904	-1.6232365255763013	3.5000062119382416
S	9.275854578411904	1.6407504944236988	3.5000007119382417
C	10.462470238411905	0.33128313442369867	3.5000059819382416
C	9.858999408411904	-0.9439320655763014	3.4999962319382414
S	0.832037198411903	2.101610134423699	3.4999983819382416
C	-0.49030595158809703	0.9295880944236986	3.4999924419382413
C	-0.029816801588096218	-0.4039712355763014	3.5000053919382417
H	1.7905826384119035	-2.6144326655763015	3.5000005719382417
H	7.809146528411904	-2.942692615576301	3.4999983219382416
H	6.264384568411903	1.8214665044236986	3.5000079819382415
H	3.8443651784119037	1.953239884423699	3.5000025219382414
C	-1.8513844715880965	1.2318498344236988	3.5000037319382415
C	-2.7650266515880966	0.18469208442369864	3.5000039619382415
C	-2.327153031588097	-1.1465299255763013	3.4999986319382415
C	-0.9715644315880962	-1.4422416455763012	3.5000070719382417
C	11.848485458411904	0.4828074244236987	3.4999950719382413
C	12.642046238411904	-0.6581339455763014	3.5000046919382415
C	12.061141698411904	-1.9334331755763012	3.5000037619382414
C	10.681389108411905	-2.0789952355763015	3.4999997219382415
H	-2.1923888615880966	2.2616219544236986	3.4999951619382417
H	-3.827837551588097	0.40313276442369866	3.5000028619382415
H	-3.0542411515880965	-1.9517041655763012	3.5000057419382413
H	-0.6424624015880966	-2.4765444955763014	3.5000004219382417
H	10.240941088411905	-3.0710013855763014	3.5000008819382415
H	12.695856198411905	-2.8132462955763016	3.5000029719382417
H	13.722403968411903	-0.5577854655763014	3.5000028619382415
H	12.300016748411904	1.4691493544236989	3.4999998219382413
