64
135c_H_capped TS90.0anti
C	-2.791464968571577	-1.9260413745674598	-2.153869861466647e-05
C	-2.6711971985715772	-0.52799470456746	1.7941301385333533e-05
C	-1.4244800085715772	0.0705022354325402	-2.1088698614666468e-05
C	-0.24531638857157723	-0.72492194456746	2.887130138533353e-05
C	-0.36975875857157714	-2.1419153045674597	-3.9128698614666465e-05
C	-1.6639799485715772	-2.72421489456746	3.2481301385333536e-05
C	1.056189781428423	-0.14462939456745993	-1.8838698614666468e-05
C	2.181797871428423	-0.9548946445674599	1.5371301385333532e-05
C	2.051067211428423	-2.35014496456746	-2.0398698614666466e-05
C	0.8008690014284228	-2.94291197456746	2.838130138533353e-05
C	-1.3470979585715772	1.55683341543254	1.3981301385333535e-05
N	-0.04525861857157709	2.05616582543254	-5.678698614666466e-06
C	1.1526644214284227	1.30188312543254	1.1131301385333534e-05
C	0.6892990114284228	-4.42338789456746	-2.348869861466647e-05
N	-0.6164266785715772	-4.91667641456746	1.5421301385333533e-05
C	-1.8135169985715773	-4.2050218945674604	-3.100869861466647e-05
O	-2.3064714685715773	2.29844773543254	-4.5386986146664655e-06
N	2.233176291428423	2.03029862543254	-9.486986146664657e-07
O	-2.8822612185715775	-4.77797951456746	9.891301385333534e-06
O	1.638266401428423	-5.1785121845674595	8.351301385333535e-06
H	-3.5501887885715773	0.10536761543254003	-1.7386986146664657e-06
H	-3.765656758571577	-2.4003272145674597	2.5513013853335343e-06
H	3.1606496514284226	-0.4906677745674599	-6.786986146664657e-07
H	2.926884751428423	-2.98823393456746	1.9130138533353428e-07
H	-0.7040583685715771	-5.925856114567459	3.0813013853335343e-06
C	0.35362254142842287	3.39377764543254	2.481301385333534e-06
C	1.7850728514284226	3.3462900554325405	-4.986986146664657e-07
C	2.3543320914284225	4.59353843543254	-1.869861466646571e-08
S	1.1115810714284227	5.80287135543254	-5.786986146664657e-07
C	-0.18886334857157716	4.63999152543254	-1.7686986146664658e-06
H	3.3950920314284225	4.877084945432539	-5.886986146664657e-07
H	-1.2197914685715772	4.952310265432541	-7.686986146664657e-07
C	-2.3533668649523474	0.4364297090569529	-11.89100274298602
C	-2.487739888780087	0.4613077055176488	-10.494462802519932
C	-1.389758250742701	0.2577375551964817	-9.678682282413478
C	-0.10720489776382275	0.0198498969104239	-10.245773836004243
C	0.02653418464766408	-0.004881535149899402	-11.661704026537409
C	-1.1202819163896844	0.20771134836003644	-12.470220199888072
C	1.0470094503385992	-0.19413922588010954	-9.4379027755177
C	2.2804512283147385	-0.42290360933141263	-10.02935149350476
C	2.404207206191081	-0.4458165527769897	-11.425049676195474
C	1.3018312611527372	-0.24144143786691297	-12.235831017259354
C	-1.5814176982751122	0.2932432380767314	-8.203157168365236
N	-0.41237221296756704	0.07647529922067949	-7.474828370911293
C	0.8809472969223024	-0.16337512132117085	-7.998047658274472
C	1.459392700744761	-0.27060689567550017	-13.711832570064583
N	0.28550303612799244	-0.05296022981866721	-14.434927395900788
C	-0.9993638546684489	0.1853528610139546	-13.953469883857654
O	-2.6418467797536787	0.4899081689890926	-7.648898745095428
N	1.794952975016749	-0.3328561571804601	-7.084830903668947
O	-1.9298681177689905	0.3578640850985759	-14.71168907227801
O	2.512181188052476	-0.4658685009833447	-14.281271862816794
H	-3.4510522074054935	0.639964472136015	-10.031985580810769
H	-3.210148432085164	0.5952868842091383	-12.534964268569915
H	3.143539724276862	-0.5829385191883519	-9.394430655870899
H	3.36529820154277	-0.6240623224572176	-11.892753045518663
H	0.38170794625566434	-0.0707879294302948	-15.443168323720375
C	-0.2665541154459852	0.04942647473147326	-6.086910144068595
C	1.1258217515066715	-0.20877284106851873	-5.872602842139248
C	1.4525550745333626	-0.26936279558916176	-4.542467962973471
S	0.034315631453812216	-0.006363734799375441	-3.579999997156337
C	-1.0144198072528479	0.1881151001507947	-4.9604988746961025
H	2.4078823165107193	-0.44651821340688164	-4.073910928327662
H	-2.0670661188157653	0.38331694049260845	-4.841386456187043
