64
135c_H_capped TS45.0
C	-2.791464968571577	-1.9260413745674598	-2.153869861466647e-05
C	-2.6711971985715772	-0.52799470456746	1.7941301385333533e-05
C	-1.4244800085715772	0.0705022354325402	-2.1088698614666468e-05
C	-0.24531638857157723	-0.72492194456746	2.887130138533353e-05
C	-0.36975875857157714	-2.1419153045674597	-3.9128698614666465e-05
C	-1.6639799485715772	-2.72421489456746	3.2481301385333536e-05
C	1.056189781428423	-0.14462939456745993	-1.8838698614666468e-05
C	2.181797871428423	-0.9548946445674599	1.5371301385333532e-05
C	2.051067211428423	-2.35014496456746	-2.0398698614666466e-05
C	0.8008690014284228	-2.94291197456746	2.838130138533353e-05
C	-1.3470979585715772	1.55683341543254	1.3981301385333535e-05
N	-0.04525861857157709	2.05616582543254	-5.678698614666466e-06
C	1.1526644214284227	1.30188312543254	1.1131301385333534e-05
C	0.6892990114284228	-4.42338789456746	-2.348869861466647e-05
N	-0.6164266785715772	-4.91667641456746	1.5421301385333533e-05
C	-1.8135169985715773	-4.2050218945674604	-3.100869861466647e-05
O	-2.3064714685715773	2.29844773543254	-4.5386986146664655e-06
N	2.233176291428423	2.03029862543254	-9.486986146664657e-07
O	-2.8822612185715775	-4.77797951456746	9.891301385333534e-06
O	1.638266401428423	-5.1785121845674595	8.351301385333535e-06
H	-3.5501887885715773	0.10536761543254003	-1.7386986146664657e-06
H	-3.765656758571577	-2.4003272145674597	2.5513013853335343e-06
H	3.1606496514284226	-0.4906677745674599	-6.786986146664657e-07
H	2.926884751428423	-2.98823393456746	1.9130138533353428e-07
H	-0.7040583685715771	-5.925856114567459	3.0813013853335343e-06
C	0.35362254142842287	3.39377764543254	2.481301385333534e-06
C	1.7850728514284226	3.3462900554325405	-4.986986146664657e-07
C	2.3543320914284225	4.59353843543254	-1.869861466646571e-08
S	1.1115810714284227	5.80287135543254	-5.786986146664657e-07
C	-0.18886334857157716	4.63999152543254	-1.7686986146664658e-06
H	3.3950920314284225	4.877084945432539	-5.886986146664657e-07
H	-1.2197914685715772	4.952310265432541	-7.686986146664657e-07
C	-2.6631479279199963	-1.234079989781265	5.059562702326497
C	-2.6174657485466484	-0.23824118751388068	6.047093485615755
C	-1.4143092656003078	0.12535167852720824	6.623909787277228
C	-0.20486724026242445	-0.5067941424414658	6.222950787210365
C	-0.25368483015522075	-1.5159757347665745	5.221688859946314
C	-1.504737457819063	-1.8654859178834629	4.650032266351723
C	1.0535017375947004	-0.15912183344615216	6.794168116722083
C	2.210691027223914	-0.7990833176222913	6.375974865294176
C	2.1545005263283947	-1.7923707624646834	5.389041918366567
C	0.947594791257759	-2.15168015847886	4.815767464548355
C	-1.4157303446058003	1.1867316283871998	7.667288406045104
N	-0.15278395619073218	1.4763311530847703	8.182280695811501
C	1.0730788188327793	0.872715373495344	7.81232063174105
C	0.9148555393635617	-3.207055964373582	3.7720400744811897
N	-0.3522591948068746	-3.49213228036893	3.260762373509927
C	-1.575055194590716	-2.919097386004589	3.6011714582643766
O	-2.404700972535186	1.7687414779912545	8.059195236450744
N	2.10482304208244	1.3381480232361842	8.458053818392663
O	-2.6033129382507703	-3.27372893015372	3.065058481113273
O	1.8942290455276192	-3.7982132060142986	3.36940816724474
H	-3.5211528432248302	0.2619489447543953	6.374100382435019
H	-3.602952863195178	-1.5229323781202453	4.60423020437416
H	3.1556377228384647	-0.5176919199852502	6.824920316412438
H	3.055292549636536	-2.2957831335070655	5.058340220673356
H	-0.38604542523097146	-4.21094667924211	2.5478196473790433
C	0.1719760874553087	2.414239814470094	9.16369285073045
C	1.5919819847228034	2.305037450834745	9.315228842210939
C	2.0902069499089646	3.169228675072006	10.255776563357923
S	0.7960565622877178	4.10138701110463	10.93634384136337
C	-0.4306638748563665	3.33606877032813	9.96018291817541
H	3.105944265472426	3.3178389817891714	10.587095984086126
H	-1.4679531919549413	3.6140843225461934	10.044408860265595
