64
135c_H_capped cofacial 5.0A
C	-2.791464968571577	-1.9260413745674598	-2.153869861466647e-05
C	-2.6711971985715772	-0.52799470456746	1.7941301385333533e-05
C	-1.4244800085715772	0.0705022354325402	-2.1088698614666468e-05
C	-0.24531638857157723	-0.72492194456746	2.887130138533353e-05
C	-0.36975875857157714	-2.1419153045674597	-3.9128698614666465e-05
C	-1.6639799485715772	-2.72421489456746	3.2481301385333536e-05
C	1.056189781428423	-0.14462939456745993	-1.8838698614666468e-05
C	2.181797871428423	-0.9548946445674599	1.5371301385333532e-05
C	2.051067211428423	-2.35014496456746	-2.0398698614666466e-05
C	0.8008690014284228	-2.94291197456746	2.838130138533353e-05
C	-1.3470979585715772	1.55683341543254	1.3981301385333535e-05
N	-0.04525861857157709	2.05616582543254	-5.678698614666466e-06
C	1.1526644214284227	1.30188312543254	1.1131301385333534e-05
C	0.6892990114284228	-4.42338789456746	-2.348869861466647e-05
N	-0.6164266785715772	-4.91667641456746	1.5421301385333533e-05
C	-1.8135169985715773	-4.2050218945674604	-3.100869861466647e-05
O	-2.3064714685715773	2.29844773543254	-4.5386986146664655e-06
N	2.233176291428423	2.03029862543254	-9.486986146664657e-07
O	-2.8822612185715775	-4.77797951456746	9.891301385333534e-06
O	1.638266401428423	-5.1785121845674595	8.351301385333535e-06
H	-3.5501887885715773	0.10536761543254003	-1.7386986146664657e-06
H	-3.765656758571577	-2.4003272145674597	2.5513013853335343e-06
H	3.1606496514284226	-0.4906677745674599	-6.786986146664657e-07
H	2.926884751428423	-2.98823393456746	1.9130138533353428e-07
H	-0.7040583685715771	-5.925856114567459	3.0813013853335343e-06
C	0.35362254142842287	3.39377764543254	2.481301385333534e-06
C	1.7850728514284226	3.3462900554325405	-4.986986146664657e-07
C	2.3543320914284225	4.59353843543254	-1.869861466646571e-08
S	1.1115810714284227	5.80287135543254	-5.786986146664657e-07
C	-0.18886334857157716	4.63999152543254	-1.7686986146664658e-06
H	3.3950920314284225	4.877084945432539	-5.886986146664657e-07
H	-1.2197914685715772	4.952310265432541	-7.686986146664657e-07
C	-2.7914652908591635	-1.9260408781686786	4.99997846130135
C	-2.6711975208591636	-0.5279942081686789	5.0000179413013495
C	-1.4244803308591636	0.0705027318313213	4.9999789113013495
C	-0.24531671085916362	-0.7249214481686789	5.00002887130135
C	-0.36975908085916354	-2.1419148081686785	4.99996087130135
C	-1.6639802708591636	-2.724214398168679	5.00003248130135
C	1.0561894591408365	-0.14462889816867883	4.99998116130135
C	2.181797549140837	-0.9548941481686788	5.00001537130135
C	2.0510668891408366	-2.3501444681686787	4.99997960130135
C	0.8008686791408364	-2.942911478168679	5.00002838130135
C	-1.3470982808591636	1.5568339118313212	5.0000139813013496
N	-0.04525894085916348	2.0561663218313213	4.99999432130135
C	1.1526640991408363	1.3018836218313212	5.00001113130135
C	0.6892986891408364	-4.423387398168679	4.99997651130135
N	-0.6164270008591636	-4.916675918168679	5.00001542130135
C	-1.8135173208591637	-4.20502139816868	4.999968991301349
O	-2.3064717908591637	2.2984482318313213	4.99999546130135
N	2.2331759691408366	2.0302991218313213	4.99999905130135
O	-2.882261540859164	-4.777979018168679	5.0000098913013495
O	1.6382660791408366	-5.178511688168679	5.00000835130135
H	-3.5501891108591637	0.10536811183132114	4.99999826130135
H	-3.7656570808591634	-2.4003267181686785	5.00000255130135
H	3.160649329140836	-0.4906672781686788	4.99999932130135
H	2.9268844291408365	-2.988233438168679	5.00000019130135
H	-0.7040586908591635	-5.925855618168678	5.00000308130135
C	0.35362221914083647	3.393778141831321	5.00000248130135
C	1.7850725291408363	3.3462905518313217	4.99999950130135
C	2.354331769140836	4.593538931831321	4.999999981301349
S	1.1115807491408363	5.802871851831321	4.99999942130135
C	-0.18886367085916356	4.639992021831321	4.99999823130135
H	3.395091709140836	4.87708544183132	4.99999941130135
H	-1.2197917908591636	4.952310761831321	4.9999992313013495
