64
135c_H_capped PD long+short
C	-2.791464968571577	-1.9260413745674598	-2.153869861466647e-05
C	-2.6711971985715772	-0.52799470456746	1.7941301385333533e-05
C	-1.4244800085715772	0.0705022354325402	-2.1088698614666468e-05
C	-0.24531638857157723	-0.72492194456746	2.887130138533353e-05
C	-0.36975875857157714	-2.1419153045674597	-3.9128698614666465e-05
C	-1.6639799485715772	-2.72421489456746	3.2481301385333536e-05
C	1.056189781428423	-0.14462939456745993	-1.8838698614666468e-05
C	2.181797871428423	-0.9548946445674599	1.5371301385333532e-05
C	2.051067211428423	-2.35014496456746	-2.0398698614666466e-05
C	0.8008690014284228	-2.94291197456746	2.838130138533353e-05
C	-1.3470979585715772	1.55683341543254	1.3981301385333535e-05
N	-0.04525861857157709	2.05616582543254	-5.678698614666466e-06
C	1.1526644214284227	1.30188312543254	1.1131301385333534e-05
C	0.6892990114284228	-4.42338789456746	-2.348869861466647e-05
N	-0.6164266785715772	-4.91667641456746	1.5421301385333533e-05
C	-1.8135169985715773	-4.2050218945674604	-3.100869861466647e-05
O	-2.3064714685715773	2.29844773543254	-4.5386986146664655e-06
N	2.233176291428423	2.03029862543254	-9.486986146664657e-07
O	-2.8822612185715775	-4.77797951456746	9.891301385333534e-06
O	1.638266401428423	-5.1785121845674595	8.351301385333535e-06
H	-3.5501887885715773	0.10536761543254003	-1.7386986146664657e-06
H	-3.765656758571577	-2.4003272145674597	2.5513013853335343e-06
H	3.1606496514284226	-0.4906677745674599	-6.786986146664657e-07
H	2.926884751428423	-2.98823393456746	1.9130138533353428e-07
H	-0.7040583685715771	-5.925856114567459	3.0813013853335343e-06
C	0.35362254142842287	3.39377764543254	2.481301385333534e-06
C	1.7850728514284226	3.3462900554325405	-4.986986146664657e-07
C	2.3543320914284225	4.59353843543254	-1.869861466646571e-08
S	1.1115810714284227	5.80287135543254	-5.786986146664657e-07
C	-0.18886334857157716	4.63999152543254	-1.7686986146664658e-06
H	3.3950920314284225	4.877084945432539	-5.886986146664657e-07
H	-1.2197914685715772	4.952310265432541	-7.686986146664657e-07
C	0.13560690726653185	1.4560927931291987	3.4999783141957397
C	0.25587467726653174	2.8541394631291985	3.50001779419574
C	1.5025918672665317	3.4526364031291985	3.4999787641957396
C	2.6817554872665315	2.6572122231291986	3.5000287241957397
C	2.5573131172665318	1.2402188631291988	3.49996072419574
C	1.2630919272665317	0.6579192731291985	3.50003233419574
C	3.983261657266532	3.2375047731291984	3.4999810141957397
C	5.1088697472665325	2.4272395231291988	3.5000152241957396
C	4.978139087266532	1.0319892031291986	3.49997945419574
C	3.7279408772665317	0.4392221931291984	3.50002823419574
C	1.5799739172665317	4.938967583129199	3.5000138341957396
N	2.881813257266532	5.438299993129198	3.4999941741957397
C	4.079736297266532	4.684017293129199	3.5000109841957396
C	3.6163708872665317	-1.0412537268708015	3.49997636419574
N	2.3106451972665316	-1.5345422468708017	3.5000152741957398
C	1.1135548772665316	-0.8228877268708019	3.49996884419574
O	0.6206004072665317	5.680581903129199	3.49999531419574
N	5.160248167266532	5.412432793129199	3.49999890419574
O	0.04481065726653149	-1.3958453468708014	3.5000097441957396
O	4.565338277266532	-1.796378016870801	3.5000082041957397
H	-0.6231169127334684	3.487501783129199	3.4999981141957397
H	-0.8385848827334681	0.9818069531291989	3.50000240419574
H	6.087721527266532	2.891466393129199	3.49999917419574
H	5.853956627266532	0.39390023312919853	3.50000004419574
H	2.223013507266532	-2.5437219468708006	3.5000029341957397
C	3.2806944172665315	6.775911813129198	3.50000233419574
C	4.712144727266532	6.728424223129199	3.4999993541957397
C	5.281403967266532	7.9756726031291985	3.49999983419574
S	4.038652947266532	9.185005523129197	3.4999992741957398
C	2.7382085272665315	8.022125693129198	3.49999808419574
H	6.322163907266532	8.259219113129197	3.49999926419574
H	1.7072804072665317	8.334444433129198	3.49999908419574
