64
135c_H_capped TL90.0anti
C	-2.791464968571577	-1.9260413745674598	-2.153869861466647e-05
C	-2.6711971985715772	-0.52799470456746	1.7941301385333533e-05
C	-1.4244800085715772	0.0705022354325402	-2.1088698614666468e-05
C	-0.24531638857157723	-0.72492194456746	2.887130138533353e-05
C	-0.36975875857157714	-2.1419153045674597	-3.9128698614666465e-05
C	-1.6639799485715772	-2.72421489456746	3.2481301385333536e-05
C	1.056189781428423	-0.14462939456745993	-1.8838698614666468e-05
C	2.181797871428423	-0.9548946445674599	1.5371301385333532e-05
C	2.051067211428423	-2.35014496456746	-2.0398698614666466e-05
C	0.8008690014284228	-2.94291197456746	2.838130138533353e-05
C	-1.3470979585715772	1.55683341543254	1.3981301385333535e-05
N	-0.04525861857157709	2.05616582543254	-5.678698614666466e-06
C	1.1526644214284227	1.30188312543254	1.1131301385333534e-05
C	0.6892990114284228	-4.42338789456746	-2.348869861466647e-05
N	-0.6164266785715772	-4.91667641456746	1.5421301385333533e-05
C	-1.8135169985715773	-4.2050218945674604	-3.100869861466647e-05
O	-2.3064714685715773	2.29844773543254	-4.5386986146664655e-06
N	2.233176291428423	2.03029862543254	-9.486986146664657e-07
O	-2.8822612185715775	-4.77797951456746	9.891301385333534e-06
O	1.638266401428423	-5.1785121845674595	8.351301385333535e-06
H	-3.5501887885715773	0.10536761543254003	-1.7386986146664657e-06
H	-3.765656758571577	-2.4003272145674597	2.5513013853335343e-06
H	3.1606496514284226	-0.4906677745674599	-6.786986146664657e-07
H	2.926884751428423	-2.98823393456746	1.9130138533353428e-07
H	-0.7040583685715771	-5.925856114567459	3.0813013853335343e-06
C	0.35362254142842287	3.39377764543254	2.481301385333534e-06
C	1.7850728514284226	3.3462900554325405	-4.986986146664657e-07
C	2.3543320914284225	4.59353843543254	-1.869861466646571e-08
S	1.1115810714284227	5.80287135543254	-5.786986146664657e-07
C	-0.18886334857157716	4.63999152543254	-1.7686986146664658e-06
H	3.3950920314284225	4.877084945432539	-5.886986146664657e-07
H	-1.2197914685715772	4.952310265432541	-7.686986146664657e-07
C	-0.4381151565437224	-2.362446283808808	8.686165050042355
C	-0.18344273683930645	-0.9893236274555334	8.82282140301856
C	-0.03473844159300979	-0.18721105044723044	7.70612771765332
C	-0.13808816482222722	-0.7448058091510965	6.401699340497027
C	-0.3963240850172001	-2.1369884778624337	6.265693028804734
C	-0.5436718236926051	-2.9319644120848443	7.432047697934852
C	0.009165448419822624	0.04953146722411843	5.227815861970397
C	-0.09864084413272914	-0.5320092783701018	3.9733392725909344
C	-0.35315613651422884	-1.9043049619531123	3.8474802841672626
C	-0.500939335906202	-2.70150393783149	4.96864138483343
C	0.23433115021003692	1.2635735698331925	7.901047957384937
N	0.36710926129021204	1.979696828065824	6.712075301908445
C	0.2717262513143379	1.4652449501433582	5.396703358968085
C	-0.770112314954936	-4.152753941476776	4.808403594881959
N	-0.9019171792692675	-4.863734473893788	6.0022994459807295
C	-0.814177791393459	-4.390338922115984	7.309080163470105
O	0.3353718921707297	1.8085445494621004	8.979559307111083
N	0.4382227714753139	2.3631555613375377	4.467117168732745
O	-0.9523849937714228	-5.135855433281754	8.255440847650485
O	-0.8739079147432657	-4.712653742041851	3.737660633925888
H	-0.09913776725668841	-0.5345951318251428	9.802560506779969
H	-0.5555060876776298	-2.995617373244054	9.5575492609959
H	0.017109587407678324	0.09227120457580071	3.0955391185081234
H	-0.4384131040198818	-2.3641721651753924	2.8700002064554364
H	-1.0857636669946011	-5.855072090778187	5.904456825218401
C	0.62017886502132	3.344347959764383	6.563769451401914
C	0.659250921162196	3.5550631526840886	5.147655916718441
C	0.9017772280380977	4.862900925236023	4.815351906965677
S	1.0772652079123477	5.809235442613029	6.2577704174013835
C	0.825555268443415	4.451878170390992	7.32438587315377
H	0.9872094707877002	5.323603512865281	3.8437376143100037
H	0.8472742622810121	4.568993908999918	8.394978219959823
