66
54a TS45.0
C	-5.1712677356076595	-0.5320893994037452	3.1075468936620135e-06
C	-4.59887788560766	0.7653524105962546	5.577546893662013e-06
C	-3.17011944560766	0.6800456905962549	-2.7322453106337986e-05
C	-2.67341767560766	-0.6111069194037452	-1.5162453106337986e-05
S	-3.9486888156076603	-1.8148866794037453	5.575468936620132e-07
S	-1.9004782856076599	1.8918552005962546	3.897546893662013e-06
C	-0.6930606656076601	0.6239025305962547	2.4037546893662013e-05
C	-1.2565691756076598	-0.6499597494037452	1.4307546893662013e-05
C	0.72181305439234	0.5902200905962547	-7.592453106337987e-06
C	1.2229644543923401	-0.7091426294037453	7.707546893662014e-06
S	-0.04661679560765997	-1.9216015594037452	-7.562453106337987e-06
S	1.9903345843923401	1.7982621805962549	1.777546893662013e-06
C	3.2001994443923403	0.5255844105962548	-1.2372453106337987e-05
C	2.63921339439234	-0.7392627294037453	-9.162453106337986e-06
C	4.6325147143923395	0.5378206505962548	2.4717546893662014e-05
C	5.13682108439234	-0.7880662594037452	-1.6082453106337985e-05
S	3.85076631439234	-2.006378079403745	-1.5245310633798685e-07
C	-5.44700911560766	1.8836252305962546	6.175468936620131e-07
C	-6.8205212856076605	1.6992014005962546	2.7175468936620134e-06
C	-7.371719835607659	0.4090656305962548	-1.3102453106337987e-05
C	-6.55256167560766	-0.7140623794037452	2.1627546893662014e-05
C	5.539842344392341	1.6089411805962548	-6.952453106337987e-06
C	6.90196858439234	1.3516816105962548	7.337546893662013e-06
C	7.38439765439234	0.034824660596254775	-5.9424531063379875e-06
C	6.50637257439234	-1.0430693994037452	8.427546893662014e-06
H	-5.0257225456076595	2.883982730596255	-4.722453106337987e-06
H	-7.4781818756076595	2.5619923405962544	-6.642453106337987e-06
H	-8.44927087560766	0.28456647059625473	-7.624531063379868e-07
H	-6.98136428560766	-1.7106222094037453	-5.802453106337987e-06
H	6.88102836439234	-2.0610937694037452	-5.882453106337987e-06
H	8.45378832439234	-0.1466394994037452	-5.624531063379868e-07
H	7.60391863439234	2.1789362005962545	-7.552453106337987e-06
H	5.17427887439234	2.6308023105962546	1.7275468936620131e-06
C	-3.6614677063029646	-0.5697498049599153	4.8801569917453005
C	-3.2471516105700498	0.7316342995002645	5.261899020084083
C	-2.237206252315439	0.6567726055621098	6.273350461109048
C	-1.8953301674066032	-0.6305187154697475	6.647234812402697
S	-2.8061153901016143	-1.8433886044058	5.766996718485874
S	-1.3303776063398787	1.8776305105809776	7.14950041817025
C	-0.4856563648008379	0.6187233392124237	8.025377145125464
C	-0.8935134969300488	-0.6590208221873999	7.649492366072245
C	0.514844506562682	0.5953751876875223	9.026104391448186
C	0.8598056020324075	-0.7000922102915458	9.403281097340157
S	-0.046996686653683374	-1.9215986984948603	8.527196217872218
S	1.4208691895242247	1.8124578000676184	9.9015138681386
C	2.2673110769687885	0.5488436496039379	10.779179576619027
C	1.8612947268721882	-0.719868371007508	10.40492809955936
C	3.280434846343602	0.5715343533855607	11.791475047077055
C	3.627473415136363	-0.7504303623562667	12.171309927914066
S	2.7089548011605986	-1.9779083829918855	11.283705383602957
C	-3.838857159198263	1.8435119683972003	4.642646828802076
C	-4.811675027957318	1.6490949872262657	3.6749819788308375
C	-5.2109399733208015	0.35517005555335013	3.3080815544579547
C	-4.639783247328719	-0.7617729005640096	3.906959710914787
C	3.930020424015222	1.6490828641797524	12.41394625373495
C	4.891548750087814	1.4018140415166627	13.381361256593689
C	5.223160224028738	0.08871842035236746	13.745591615776732
C	4.594262788134093	-0.9953887806683762	13.143941187605275
H	-3.533578280376824	2.84676265252273	4.922808162401687
H	-5.270525024789908	2.506927672734804	3.194872176855518
H	-5.973997545913549	0.22282755776266372	2.5485785004907893
H	-4.950327245385608	-1.761282051779045	3.6213952597429246
H	4.851829982752734	-2.010493009247803	13.426718705232911
H	5.978199634806613	-0.0849059484427738	14.504733047401423
H	5.39408067771594	2.2340420374971157	13.862965091725325
H	3.6789161188286315	2.668089429668022	12.137524353214713
