66
54a TL90.0anti
C	-5.1712677356076595	-0.5320893994037452	3.1075468936620135e-06
C	-4.59887788560766	0.7653524105962546	5.577546893662013e-06
C	-3.17011944560766	0.6800456905962549	-2.7322453106337986e-05
C	-2.67341767560766	-0.6111069194037452	-1.5162453106337986e-05
S	-3.9486888156076603	-1.8148866794037453	5.575468936620132e-07
S	-1.9004782856076599	1.8918552005962546	3.897546893662013e-06
C	-0.6930606656076601	0.6239025305962547	2.4037546893662013e-05
C	-1.2565691756076598	-0.6499597494037452	1.4307546893662013e-05
C	0.72181305439234	0.5902200905962547	-7.592453106337987e-06
C	1.2229644543923401	-0.7091426294037453	7.707546893662014e-06
S	-0.04661679560765997	-1.9216015594037452	-7.562453106337987e-06
S	1.9903345843923401	1.7982621805962549	1.777546893662013e-06
C	3.2001994443923403	0.5255844105962548	-1.2372453106337987e-05
C	2.63921339439234	-0.7392627294037453	-9.162453106337986e-06
C	4.6325147143923395	0.5378206505962548	2.4717546893662014e-05
C	5.13682108439234	-0.7880662594037452	-1.6082453106337985e-05
S	3.85076631439234	-2.006378079403745	-1.5245310633798685e-07
C	-5.44700911560766	1.8836252305962546	6.175468936620131e-07
C	-6.8205212856076605	1.6992014005962546	2.7175468936620134e-06
C	-7.371719835607659	0.4090656305962548	-1.3102453106337987e-05
C	-6.55256167560766	-0.7140623794037452	2.1627546893662014e-05
C	5.539842344392341	1.6089411805962548	-6.952453106337987e-06
C	6.90196858439234	1.3516816105962548	7.337546893662013e-06
C	7.38439765439234	0.034824660596254775	-5.9424531063379875e-06
C	6.50637257439234	-1.0430693994037452	8.427546893662014e-06
H	-5.0257225456076595	2.883982730596255	-4.722453106337987e-06
H	-7.4781818756076595	2.5619923405962544	-6.642453106337987e-06
H	-8.44927087560766	0.28456647059625473	-7.624531063379868e-07
H	-6.98136428560766	-1.7106222094037453	-5.802453106337987e-06
H	6.88102836439234	-2.0610937694037452	-5.882453106337987e-06
H	8.45378832439234	-0.1466394994037452	-5.624531063379868e-07
H	7.60391863439234	2.1789362005962545	-7.552453106337987e-06
H	5.17427887439234	2.6308023105962546	1.7275468936620131e-06
C	-5.1547903592267525	0.12856042336378473	4.84130341106835
C	-4.615096450129885	0.11509721927120965	6.152613678451513
C	-3.1850990793249214	0.07946396218345823	6.102957783423738
C	-2.6565231411302204	0.06626836307705933	4.824591222337043
S	-3.9009964396029893	0.09729157140168433	3.589388420654976
S	-1.9464535806601013	0.048539152873053916	7.346047462197466
C	-0.7081821178569456	0.01763475599452355	6.108594438639352
C	-1.2395877706628695	0.030898501450355397	4.8210778156141245
C	0.70665234663353	-0.017621587049036953	6.110200575804137
C	1.2398797154224424	-0.03093634042345762	4.823737403148627
S	0.001309879261024035	-2.9373203723283087e-05	3.5800000000567054
S	1.944273362860349	-0.04849898751592071	7.349496089274192
C	3.185109177042253	-0.07943304229952247	6.107380453589096
C	2.6559993820563483	-0.06623950282572119	4.828939062192051
C	4.61622806598727	-0.11516428341015547	6.15532587812209
C	5.153270984017021	-0.12851808456036934	4.842425426912824
S	3.898382980461784	-0.09723532875069851	3.592426206846132
C	-5.490574346647876	0.13693784413662902	7.249391743098408
C	-6.858635722715239	0.17105713904556258	7.030778442400621
C	-7.377333283692166	0.18401001851921472	5.727300322156251
C	-6.530690166737169	0.16285879478962367	4.624946169719392
C	5.49629366241814	-0.1370826906417721	7.248736481854783
C	6.863985177348855	-0.17120915578527	7.0255198054601555
C	7.378938629344268	-0.18403954280850662	5.721101023792409
C	6.528326634156571	-0.16283844488317362	4.621649618323139
H	-5.094484460895125	0.12706414096327634	8.259942491100283
H	-7.53739314265794	0.1879956769347321	7.876903201924737
H	-8.451111463226402	0.21077922896762274	5.575972481604122
H	-6.934385263478492	0.17295496292774348	3.6180045079927625
H	6.928125133452785	-0.1727956733609168	3.6132833194710137
H	8.452187511004212	-0.21081327732620103	5.566357197963525
H	7.544879058175477	-0.1881767225046043	7.870019452781142
H	5.105486335828484	-0.12734408304235895	8.261165053500472
