66
54a cofacial 3.5A
C	-5.1712677356076595	-0.5320893994037452	3.1075468936620135e-06
C	-4.59887788560766	0.7653524105962546	5.577546893662013e-06
C	-3.17011944560766	0.6800456905962549	-2.7322453106337986e-05
C	-2.67341767560766	-0.6111069194037452	-1.5162453106337986e-05
S	-3.9486888156076603	-1.8148866794037453	5.575468936620132e-07
S	-1.9004782856076599	1.8918552005962546	3.897546893662013e-06
C	-0.6930606656076601	0.6239025305962547	2.4037546893662013e-05
C	-1.2565691756076598	-0.6499597494037452	1.4307546893662013e-05
C	0.72181305439234	0.5902200905962547	-7.592453106337987e-06
C	1.2229644543923401	-0.7091426294037453	7.707546893662014e-06
S	-0.04661679560765997	-1.9216015594037452	-7.562453106337987e-06
S	1.9903345843923401	1.7982621805962549	1.777546893662013e-06
C	3.2001994443923403	0.5255844105962548	-1.2372453106337987e-05
C	2.63921339439234	-0.7392627294037453	-9.162453106337986e-06
C	4.6325147143923395	0.5378206505962548	2.4717546893662014e-05
C	5.13682108439234	-0.7880662594037452	-1.6082453106337985e-05
S	3.85076631439234	-2.006378079403745	-1.5245310633798685e-07
C	-5.44700911560766	1.8836252305962546	6.175468936620131e-07
C	-6.8205212856076605	1.6992014005962546	2.7175468936620134e-06
C	-7.371719835607659	0.4090656305962548	-1.3102453106337987e-05
C	-6.55256167560766	-0.7140623794037452	2.1627546893662014e-05
C	5.539842344392341	1.6089411805962548	-6.952453106337987e-06
C	6.90196858439234	1.3516816105962548	7.337546893662013e-06
C	7.38439765439234	0.034824660596254775	-5.9424531063379875e-06
C	6.50637257439234	-1.0430693994037452	8.427546893662014e-06
H	-5.0257225456076595	2.883982730596255	-4.722453106337987e-06
H	-7.4781818756076595	2.5619923405962544	-6.642453106337987e-06
H	-8.44927087560766	0.28456647059625473	-7.624531063379868e-07
H	-6.98136428560766	-1.7106222094037453	-5.802453106337987e-06
H	6.88102836439234	-2.0610937694037452	-5.882453106337987e-06
H	8.45378832439234	-0.1466394994037452	-5.624531063379868e-07
H	7.60391863439234	2.1789362005962545	-7.552453106337987e-06
H	5.17427887439234	2.6308023105962546	1.7275468936620131e-06
C	-5.171267944999837	-0.5320921089576934	3.5000031075458384
C	-4.598878094999837	0.7653497010423064	3.5000055775458385
C	-3.170119654999837	0.6800429810423066	3.4999726775458386
C	-2.6734178849998376	-0.6111096289576934	3.4999848375458384
S	-3.9486890249998376	-1.8148893889576934	3.5000005575458384
S	-1.9004784949998375	1.8918524910423065	3.5000038975458385
C	-0.6930608749998377	0.6238998210423065	3.5000240375458387
C	-1.2565693849998374	-0.6499624589576934	3.5000143075458383
C	0.7218128450001624	0.5902173810423065	3.4999924075458386
C	1.2229642450001625	-0.7091453389576935	3.5000077075458385
S	-0.04661700499983753	-1.9216042689576933	3.4999924375458384
S	1.9903343750001625	1.7982594710423068	3.5000017775458385
C	3.200199235000163	0.5255817010423066	3.4999876275458384
C	2.6392131850001626	-0.7392654389576935	3.4999908375458384
C	4.632514505000162	0.5378179410423066	3.5000247175458385
C	5.136820875000162	-0.7880689689576934	3.4999839175458387
S	3.8507661050001625	-2.0063807889576935	3.4999998475458387
C	-5.447009324999837	1.8836225210423065	3.5000006175458385
C	-6.820521494999838	1.6991986910423065	3.5000027175458386
C	-7.371720044999837	0.40906292104230657	3.4999868975458384
C	-6.552561884999838	-0.7140650889576934	3.5000216275458387
C	5.539842135000163	1.6089384710423067	3.4999930475458383
C	6.901968375000163	1.3516789010423067	3.5000073375458385
C	7.384397445000163	0.03482195104230657	3.4999940575458384
C	6.506372365000162	-1.0430721089576933	3.5000084275458385
H	-5.025722754999837	2.8839800210423068	3.4999952775458385
H	-7.478182084999837	2.561989631042306	3.4999933575458386
H	-8.449271084999838	0.2845637610423065	3.4999992375458384
H	-6.981364494999838	-1.7106249189576934	3.4999941975458384
H	6.881028155000163	-2.0610964789576935	3.4999941175458384
H	8.453788115000162	-0.14664220895769342	3.4999994375458385
H	7.603918425000162	2.178933491042306	3.4999924475458384
H	5.174278665000163	2.6307996010423063	3.5000017275458384
