66
54a TL90.0
C	-5.1712677356076595	-0.5320893994037452	3.1075468936620135e-06
C	-4.59887788560766	0.7653524105962546	5.577546893662013e-06
C	-3.17011944560766	0.6800456905962549	-2.7322453106337986e-05
C	-2.67341767560766	-0.6111069194037452	-1.5162453106337986e-05
S	-3.9486888156076603	-1.8148866794037453	5.575468936620132e-07
S	-1.9004782856076599	1.8918552005962546	3.897546893662013e-06
C	-0.6930606656076601	0.6239025305962547	2.4037546893662013e-05
C	-1.2565691756076598	-0.6499597494037452	1.4307546893662013e-05
C	0.72181305439234	0.5902200905962547	-7.592453106337987e-06
C	1.2229644543923401	-0.7091426294037453	7.707546893662014e-06
S	-0.04661679560765997	-1.9216015594037452	-7.562453106337987e-06
S	1.9903345843923401	1.7982621805962549	1.777546893662013e-06
C	3.2001994443923403	0.5255844105962548	-1.2372453106337987e-05
C	2.63921339439234	-0.7392627294037453	-9.162453106337986e-06
C	4.6325147143923395	0.5378206505962548	2.4717546893662014e-05
C	5.13682108439234	-0.7880662594037452	-1.6082453106337985e-05
S	3.85076631439234	-2.006378079403745	-1.5245310633798685e-07
C	-5.44700911560766	1.8836252305962546	6.175468936620131e-07
C	-6.8205212856076605	1.6992014005962546	2.7175468936620134e-06
C	-7.371719835607659	0.4090656305962548	-1.3102453106337987e-05
C	-6.55256167560766	-0.7140623794037452	2.1627546893662014e-05
C	5.539842344392341	1.6089411805962548	-6.952453106337987e-06
C	6.90196858439234	1.3516816105962548	7.337546893662013e-06
C	7.38439765439234	0.034824660596254775	-5.9424531063379875e-06
C	6.50637257439234	-1.0430693994037452	8.427546893662014e-06
H	-5.0257225456076595	2.883982730596255	-4.722453106337987e-06
H	-7.4781818756076595	2.5619923405962544	-6.642453106337987e-06
H	-8.44927087560766	0.28456647059625473	-7.624531063379868e-07
H	-6.98136428560766	-1.7106222094037453	-5.802453106337987e-06
H	6.88102836439234	-2.0610937694037452	-5.882453106337987e-06
H	8.45378832439234	-0.1466394994037452	-5.624531063379868e-07
H	7.60391863439234	2.1789362005962545	-7.552453106337987e-06
H	5.17427887439234	2.6308023105962546	1.7275468936620131e-06
C	-5.154789693289939	0.1285690406471157	-6.289861435568207
C	-4.6150957841930715	0.1151058365545406	-4.978551168185044
C	-3.185098413388108	0.07947257946678918	-5.028207063212818
C	-2.656522475193407	0.06627698036039027	-6.3065736242995145
S	-3.900995773666176	0.09730018868501528	-7.541776425981581
S	-1.946452914723288	0.048547770156384874	-3.7851173844390917
C	-0.7081814519201325	0.017643373277854507	-5.022570407997206
C	-1.2395871047260563	0.030907118733686356	-6.310087031022433
C	0.7066530125703432	-0.017612969765705994	-5.020964270832421
C	1.2398803813592556	-0.03092772314012666	-6.307427443487931
S	0.0013105451978371906	-2.075592039232558e-05	-7.5511648465798515
S	1.9442740287971623	-0.04849037023258975	-3.781668757362365
C	3.1851098429790663	-0.07942442501619153	-5.023784393047461
C	2.6560000479931616	-0.06623088554239025	-6.302225784444507
C	4.616228731924084	-0.11515566612682453	-4.975838968514467
C	5.153271649953834	-0.12850946727703838	-6.2887394197237345
S	3.8983836463985972	-0.09722671146736757	-7.5387386397904255
C	-5.490573680711063	0.13694646141995998	-3.8817731035381495
C	-6.858635056778426	0.17106575632889354	-4.1003864042359375
C	-7.377332617755353	0.18401863580254568	-5.403864524480307
C	-6.530689500800356	0.16286741207295463	-6.506218676917165
C	5.496294328354954	-0.13707407335844113	-3.882428364781774
C	6.863985843285668	-0.17120053850193903	-4.105645041176402
C	7.378939295281081	-0.18403092552517566	-5.410063822844148
C	6.528327300093384	-0.16282982759984266	-6.509515228313418
H	-5.094483794958312	0.1270727582466073	-2.871222355536275
H	-7.537392476721127	0.18800429421806306	-3.254261644711821
H	-8.45111079728959	0.2107878462509537	-5.555192365032435
H	-6.934384597541679	0.17296358021107444	-7.513160338643795
H	6.928125799389599	-0.17278705607758585	-7.517881527165544
H	8.452188176941023	-0.21080466004287007	-5.564807648673033
H	7.54487972411229	-0.18816810522127334	-3.2611453938554162
H	5.105487001765297	-0.127335465759028	-2.8699997931360857
