66
54a TS90.0
C	-5.1712677356076595	-0.5320893994037452	3.1075468936620135e-06
C	-4.59887788560766	0.7653524105962546	5.577546893662013e-06
C	-3.17011944560766	0.6800456905962549	-2.7322453106337986e-05
C	-2.67341767560766	-0.6111069194037452	-1.5162453106337986e-05
S	-3.9486888156076603	-1.8148866794037453	5.575468936620132e-07
S	-1.9004782856076599	1.8918552005962546	3.897546893662013e-06
C	-0.6930606656076601	0.6239025305962547	2.4037546893662013e-05
C	-1.2565691756076598	-0.6499597494037452	1.4307546893662013e-05
C	0.72181305439234	0.5902200905962547	-7.592453106337987e-06
C	1.2229644543923401	-0.7091426294037453	7.707546893662014e-06
S	-0.04661679560765997	-1.9216015594037452	-7.562453106337987e-06
S	1.9903345843923401	1.7982621805962549	1.777546893662013e-06
C	3.2001994443923403	0.5255844105962548	-1.2372453106337987e-05
C	2.63921339439234	-0.7392627294037453	-9.162453106337986e-06
C	4.6325147143923395	0.5378206505962548	2.4717546893662014e-05
C	5.13682108439234	-0.7880662594037452	-1.6082453106337985e-05
S	3.85076631439234	-2.006378079403745	-1.5245310633798685e-07
C	-5.44700911560766	1.8836252305962546	6.175468936620131e-07
C	-6.8205212856076605	1.6992014005962546	2.7175468936620134e-06
C	-7.371719835607659	0.4090656305962548	-1.3102453106337987e-05
C	-6.55256167560766	-0.7140623794037452	2.1627546893662014e-05
C	5.539842344392341	1.6089411805962548	-6.952453106337987e-06
C	6.90196858439234	1.3516816105962548	7.337546893662013e-06
C	7.38439765439234	0.034824660596254775	-5.9424531063379875e-06
C	6.50637257439234	-1.0430693994037452	8.427546893662014e-06
H	-5.0257225456076595	2.883982730596255	-4.722453106337987e-06
H	-7.4781818756076595	2.5619923405962544	-6.642453106337987e-06
H	-8.44927087560766	0.28456647059625473	-7.624531063379868e-07
H	-6.98136428560766	-1.7106222094037453	-5.802453106337987e-06
H	6.88102836439234	-2.0610937694037452	-5.882453106337987e-06
H	8.45378832439234	-0.1466394994037452	-5.624531063379868e-07
H	7.60391863439234	2.1789362005962545	-7.552453106337987e-06
H	5.17427887439234	2.6308023105962546	1.7275468936620131e-06
C	-0.016481958175584913	-0.6606620782243325	6.168422791109107
C	0.01621240540469305	0.6502401075718208	6.70828567054253
C	0.015007121996100227	0.6005976640861544	8.138726893566908
C	-0.01688045448469618	-0.6773715648511394	8.667466473260362
S	-0.047695287744354185	-1.9121889191155885	7.422605541666716
S	0.045971685172687016	1.8433006184917946	9.377759390156909
C	0.015096274643580829	0.6062318264766308	10.616415434302747
C	-0.016997549137745278	-0.6808843004911533	10.084843227054817
C	0.01516791421747468	0.6078355212123083	12.03168910901814
C	-0.01692468620662686	-0.6782277274565318	12.565081637559004
S	-0.047921345096818196	-1.9215778071517926	11.326125224289791
S	0.04605971507056582	1.8467449459857994	13.2696962565017
C	0.015102324004483315	0.6050141344133005	14.510916590465456
C	-0.016778149590048145	-0.6730292617510676	13.981641285170449
C	0.01626071079394227	0.6529444092603508	15.942481505694001
C	-0.01643500702718099	-0.6595493002168403	16.479689349284847
S	-0.047618991054822236	-1.9091584587398627	15.224410466916162
C	0.04356497587487264	1.746677760783897	5.832536281285457
C	0.038111894700618515	1.5281335982902637	4.46404932732497
C	0.005626167083418124	0.22506077451369136	3.945188999065045
C	-0.021895200411281922	-0.876950466986953	4.792095379419301
C	0.043555981336625915	1.7460135501713752	16.822820894989928
C	0.03797587548561659	1.522865515039108	18.19093792108551
C	0.005464132716768901	0.2188515422653851	18.70605012237155
C	-0.021964468073323133	-0.8802569776189136	17.855173057646436
H	0.06876786677449545	2.756913859541064	6.2287500379312
H	0.05921894918094024	2.3739956074214117	3.7850812782736014
H	0.0018405712779156294	0.07378116749010587	2.871077070744141
H	-0.0469753406437297	-1.883579412476271	4.388273232263118
H	-0.047093263168235464	-1.8883104457380064	18.25509471018521
H	0.001600275227640514	0.06415508670358254	19.7796327804461
H	0.05904790924463285	2.3671016699882466	18.872043870011765
H	0.06879169517074253	2.7581278803553473	16.43189307420687
