64
n12 TL90.0
C	-3.683930143990584	-0.6435667936248859	1.7516920119390906e-05
C	-3.664259893990584	0.7634569563751141	-3.163079880609094e-06
C	-2.474824563990584	1.4411178163751142	3.242692011939091e-05
C	-1.218446193990584	0.7549402063751142	-0.0001332930798806091
C	-1.235578333990584	-0.6906464136248858	0.00019875692011939088
C	-2.508302073990584	-1.3519944536248858	-7.423307988060909e-05
C	0.030828586009415987	1.4291584763751142	0.00011913692011939091
C	1.235567066009416	0.6906579063751142	-0.0001957030798806091
C	1.218429136009416	-0.7549241536248859	0.0001401169201193909
C	-0.030838323990584005	-1.4291406236248858	-0.0001281730798806091
C	2.508301536009416	1.3519859463751143	7.479692011939091e-05
C	3.683921426009416	0.6435419563751141	-2.0443079880609093e-05
C	3.664236906009416	-0.7634822036248858	4.276920119390905e-06
C	2.474792276009416	-1.4411201736248858	-3.401307988060909e-05
C	0.10731011600941598	2.929440716375114	-5.654307988060909e-05
N	1.382856386009416	3.4762461063751138	4.7756920119390905e-05
C	2.606304616009416	2.826733606375114	-4.4413079880609095e-05
O	3.646314076009416	3.453139326375114	-2.0153079880609094e-05
O	-0.8398676439905839	3.694147306375114	-5.6573079880609094e-05
C	-2.606288043990584	-2.826745843624886	4.408692011939091e-05
N	-1.3828338039905839	-3.476244163624886	-4.5773079880609096e-05
C	-0.10730001399058403	-2.929423253624886	6.28769201193909e-05
O	0.8398875160094159	-3.6941173336248863	5.4366920119390904e-05
O	-3.646292933990584	-3.453158493624886	1.7526920119390908e-05
H	1.412551556009416	4.488777766375114	6.52269201193909e-05
H	-1.412501563990584	-4.488776343624886	-6.581307988060909e-05
H	-2.468058813990584	2.517852526375114	1.6486920119390908e-05
H	-4.597525223990584	1.3156588763751143	-6.433079880609095e-06
H	-4.615927043990585	-1.1965668536248857	-4.7830798806090945e-06
H	2.467982206009416	-2.517854373624886	-1.653307988060909e-05
H	4.597494636009416	-1.3156978536248858	6.796920119390906e-06
H	4.615924136009416	1.1965307863751142	6.346920119390906e-06
C	-2.132541872370158	-2.168961187758651	-4.895075386321537
C	-1.4194755505143966	-1.4437132678463296	-3.9226276357844023
C	-0.49599956258709066	-0.5045501315238854	-4.295649551748428
C	-0.22158375303150304	-0.2252213489654591	-5.67260189051425
C	-0.9524591414248041	-0.9690259498708748	-6.673896142327413
C	-1.9088896627886829	-1.9413666247890606	-6.230047865775353
C	0.7297399490294587	0.7419548010884535	-6.090706331928908
C	0.9525080131867975	0.9689683476110199	-7.467520493496874
C	0.22163474660947527	0.22516052747406648	-8.468807419667044
C	-0.729695766488481	-0.7419999283347468	-8.05070693583319
C	1.9089320348027996	1.9413059635367638	-7.9113904432776465
C	2.1325695710896824	2.168890580988327	-9.246368539002198
C	1.4194989105741114	1.4436324861639667	-10.218806401678286
C	0.4960278693488149	0.504478231895927	-9.845761805957896
C	1.5172440273131007	1.5431301271728997	-5.093384077833407
N	2.417678475561614	2.458761046965697	-5.619551594361409
C	2.694289840495798	2.740217896167479	-6.9473167326552066
O	3.5186833654769734	3.5786261628014833	-7.249724897121101
O	1.4339568449853328	1.4584236044831136	-3.8818520196105335
C	-2.6942415573979086	-2.7402712761787438	-7.194136391920655
N	-2.4176185020882803	-2.4588058321613886	-8.521895873990694
C	-1.5171793277051142	-1.5431763101612677	-9.04804361039921
O	-1.433887178305733	-1.458452555020685	-10.259573864338531
O	-3.5186379405275083	-3.578679169145321	-6.891736344791777
H	2.9384816800867384	2.9884148806803843	-4.93083321612791
H	-2.9384103257146488	-2.988444425394064	-9.210634161675506
H	0.045605811485196754	0.04630803624280019	-3.545568016762613
H	-1.6021636443668128	-1.6295100747036833	-2.870004368148459
H	-2.8671426830595017	-2.916049285017012	-4.618221070233914
H	-0.045597937197597305	-0.046402913080953546	-10.595811380719793
H	1.602175869819851	1.629419038394533	-11.271433876280309
H	2.867170825106905	2.9159727249753886	-9.523234871375486
