68
101g_F TS90.0
C	-6.046672615570465	-0.42284528901933005	-8.290336770842204e-05
C	-5.977256995570466	1.0064425109806698	7.859663229157797e-05
C	-4.775454795570466	1.6470440309806698	-8.859336770842203e-05
C	-3.5525743855704657	0.8997494609806699	0.00018617663229157796
C	-3.6230875855704663	-0.5518381990193301	-0.00017401336770842205
C	-4.912748105570467	-1.17700281901933	9.283663229157797e-05
C	-2.3124415355704664	1.5143904109806698	-0.00012791336770842204
C	-1.103373835570466	0.7831473509806699	0.00010178663229157797
C	-1.1741606955704662	-0.6732921490193301	-0.00011400336770842203
C	-2.448453045570466	-1.28389047901933	0.00012480663229157797
N	0.0689354544295342	1.4222483909806698	7.49663229157796e-06
C	1.173975824429534	0.6728379609806698	-0.00011900336770842203
C	1.1035141644295339	-0.7836149590193301	0.00010370663229157797
N	-0.06894019557046605	-1.42237513901933	5.0666322915779605e-06
C	2.448175574429534	1.2836606809806699	0.00012120663229157797
C	3.622953724429534	0.5519055109806699	-0.00018244336770842205
C	3.552715114429534	-0.8996965090193302	0.00019169663229157794
C	2.312695024429534	-1.5146420390193303	-0.00012777336770842206
C	4.912450574429534	1.1773395609806698	9.794663229157797e-05
C	6.046570834429534	0.42351195098066985	-8.348336770842203e-05
C	5.977423744429534	-1.0057881090193304	8.431663229157797e-05
C	4.775785614429534	-1.6467401090193299	-9.307336770842203e-05
F	-2.2437215155704657	2.85487983098067	9.956632291577961e-06
F	-2.5102181355704665	-2.62471251901933	-8.843367708422038e-06
F	2.509761924429534	2.62449959098067	-9.343367708422039e-06
F	2.244152244429534	-2.85513129901933	5.6766322915779606e-06
H	-4.7197020255704665	2.7284305809806697	1.587663229157796e-05
H	-6.896880905570466	1.5817729409806698	-9.793367708422038e-06
H	-7.017620105570465	-0.90661481901933	4.416632291577961e-06
H	-4.962785875570466	-2.25865393901933	-1.2843367708422039e-05
H	4.720383874429534	-2.72813786901933	1.4516632291577961e-05
H	6.897188464429535	-1.5809067690193301	-8.363367708422038e-06
H	7.017389874429535	0.9075230209806698	5.396632291577961e-06
H	4.962136754429534	2.2590127009806698	-1.4983367708422039e-05
C	-0.03452992461207125	-0.7142114222051084	3.816512480856094
C	0.03457666655074733	0.7150913542208792	3.81666070329892
C	0.06853237780078773	1.4122899317273827	4.986045163816528
C	0.034992051208406684	0.7258849713543896	6.243665545282745
C	-0.03499684018960224	-0.7257280981679658	6.243500475250793
C	-0.0685115942117205	-1.411769001836183	4.985613449356865
C	0.0679291258136142	1.3990299536408284	7.452592368402157
C	0.035177532547224936	0.7279688770958065	8.695639243394526
C	-0.03519081450099155	-0.7284909052445054	8.695435692055655
C	-0.06793727969555263	-1.3992579684638853	7.452193725737418
N	0.06891877569149817	1.4222480606808532	9.835637999267334
C	0.03540083159333566	0.7280153025822406	10.97565889948408
C	-0.03540538827434145	-0.7284209190459189	10.975780816535716
N	-0.06893778711734852	-1.42237639433749	9.835620661071944
C	0.067679470480039	1.399024940412923	12.218797512543404
C	0.035355496317521266	0.7257692641051473	13.427619822792588
C	-0.03536691514361648	-0.7258093094568084	13.427729715980547
C	-0.06768563450593161	-1.399283374428008	12.218930264160015
C	0.0683362951346812	1.4120975429410054	14.685330328536047
C	0.03472778695177897	0.7148612853813215	15.854610847479005
C	-0.034707681742721666	-0.714424798953949	15.854731433707471
C	-0.06833577800044828	-1.4119817823810243	14.685527816173163
F	0.1327643382981306	2.7397076421451745	7.4563441756475175
F	-0.13277649280027118	-2.739931028021816	7.45540479632709
F	0.1327829707129585	2.7396933995947834	12.21540709487428
F	-0.132791425896037	-2.7399392003319045	12.215355481399268
H	0.12084309080972194	2.493843293314083	4.989387040918043
H	0.06032703785482239	1.2446063426024052	2.8702654144277844
H	-0.060282195700196474	-1.2437877159261401	2.8701205093236837
H	-0.12082049936524994	-2.4933100563954986	4.987992679579789
H	-0.12085802190103423	-2.4935190906683085	14.682537100205682
H	-0.06026662641167383	-1.2437304703989527	16.801257116586715
H	0.0603154419373886	1.2446808718520912	16.800862827615905
H	0.1208637948466997	2.4936329847354934	14.682598854567305
