68
101g_F cofacial 5.0A
C	-6.046672615570465	-0.42284528901933005	-8.290336770842204e-05
C	-5.977256995570466	1.0064425109806698	7.859663229157797e-05
C	-4.775454795570466	1.6470440309806698	-8.859336770842203e-05
C	-3.5525743855704657	0.8997494609806699	0.00018617663229157796
C	-3.6230875855704663	-0.5518381990193301	-0.00017401336770842205
C	-4.912748105570467	-1.17700281901933	9.283663229157797e-05
C	-2.3124415355704664	1.5143904109806698	-0.00012791336770842204
C	-1.103373835570466	0.7831473509806699	0.00010178663229157797
C	-1.1741606955704662	-0.6732921490193301	-0.00011400336770842203
C	-2.448453045570466	-1.28389047901933	0.00012480663229157797
N	0.0689354544295342	1.4222483909806698	7.49663229157796e-06
C	1.173975824429534	0.6728379609806698	-0.00011900336770842203
C	1.1035141644295339	-0.7836149590193301	0.00010370663229157797
N	-0.06894019557046605	-1.42237513901933	5.0666322915779605e-06
C	2.448175574429534	1.2836606809806699	0.00012120663229157797
C	3.622953724429534	0.5519055109806699	-0.00018244336770842205
C	3.552715114429534	-0.8996965090193302	0.00019169663229157794
C	2.312695024429534	-1.5146420390193303	-0.00012777336770842206
C	4.912450574429534	1.1773395609806698	9.794663229157797e-05
C	6.046570834429534	0.42351195098066985	-8.348336770842203e-05
C	5.977423744429534	-1.0057881090193304	8.431663229157797e-05
C	4.775785614429534	-1.6467401090193299	-9.307336770842203e-05
F	-2.2437215155704657	2.85487983098067	9.956632291577961e-06
F	-2.5102181355704665	-2.62471251901933	-8.843367708422038e-06
F	2.509761924429534	2.62449959098067	-9.343367708422039e-06
F	2.244152244429534	-2.85513129901933	5.6766322915779606e-06
H	-4.7197020255704665	2.7284305809806697	1.587663229157796e-05
H	-6.896880905570466	1.5817729409806698	-9.793367708422038e-06
H	-7.017620105570465	-0.90661481901933	4.416632291577961e-06
H	-4.962785875570466	-2.25865393901933	-1.2843367708422039e-05
H	4.720383874429534	-2.72813786901933	1.4516632291577961e-05
H	6.897188464429535	-1.5809067690193301	-8.363367708422038e-06
H	7.017389874429535	0.9075230209806698	5.396632291577961e-06
H	4.962136754429534	2.2590127009806698	-1.4983367708422039e-05
C	-6.046672697818412	-0.4228458638469558	4.999917096632258
C	-5.977257077818413	1.0064419361530441	5.000078596632258
C	-4.775454877818413	1.647043456153044	4.999911406632258
C	-3.552574467818413	0.8997488861530442	5.0001861766322575
C	-3.6230876678184134	-0.5518387738469558	4.999825986632258
C	-4.912748187818414	-1.1770033938469557	5.000092836632258
C	-2.3124416178184135	1.5143898361530441	4.999872086632258
C	-1.1033739178184132	0.7831467761530442	5.000101786632258
C	-1.1741607778184133	-0.6732927238469558	4.9998859966322575
C	-2.448453127818413	-1.2838910538469557	5.0001248066322574
N	0.06893537218158707	1.422247816153044	5.000007496632258
C	1.1739757421815868	0.6728373861530441	4.999880996632258
C	1.1035140821815868	-0.7836155338469558	5.000103706632258
N	-0.06894027781841316	-1.4223757138469557	5.000005066632258
C	2.448175492181587	1.2836601061530442	5.000121206632258
C	3.622953642181587	0.5519049361530441	4.999817556632258
C	3.552715032181587	-0.8996970838469559	5.000191696632258
C	2.312694942181587	-1.514642613846956	4.999872226632258
C	4.912450492181587	1.177338986153044	5.000097946632258
C	6.046570752181587	0.4235113761530441	4.999916516632258
C	5.977423662181587	-1.005788683846956	5.0000843166322575
C	4.775785532181587	-1.6467406838469556	4.999906926632258
F	-2.243721597818413	2.854879256153044	5.000009956632258
F	-2.5102182178184136	-2.624713093846956	4.999991156632258
F	2.509761842181587	2.624499016153044	4.999990656632257
F	2.244152162181587	-2.8551318738469558	5.000005676632258
H	-4.719702107818414	2.7284300061530438	5.000015876632258
H	-6.896880987818413	1.581772366153044	4.9999902066322575
H	-7.017620187818412	-0.9066153938469558	5.000004416632258
H	-4.962785957818413	-2.258654513846956	4.999987156632258
H	4.720383792181587	-2.728138443846956	5.000014516632258
H	6.897188382181588	-1.5809073438469559	4.999991636632258
H	7.0173897921815875	0.9075224461530441	5.0000053966322575
H	4.962136672181587	2.259012126153044	4.999985016632258
