68
101g_F cofacial 4.5A
C	-6.046672615570465	-0.42284528901933005	-8.290336770842204e-05
C	-5.977256995570466	1.0064425109806698	7.859663229157797e-05
C	-4.775454795570466	1.6470440309806698	-8.859336770842203e-05
C	-3.5525743855704657	0.8997494609806699	0.00018617663229157796
C	-3.6230875855704663	-0.5518381990193301	-0.00017401336770842205
C	-4.912748105570467	-1.17700281901933	9.283663229157797e-05
C	-2.3124415355704664	1.5143904109806698	-0.00012791336770842204
C	-1.103373835570466	0.7831473509806699	0.00010178663229157797
C	-1.1741606955704662	-0.6732921490193301	-0.00011400336770842203
C	-2.448453045570466	-1.28389047901933	0.00012480663229157797
N	0.0689354544295342	1.4222483909806698	7.49663229157796e-06
C	1.173975824429534	0.6728379609806698	-0.00011900336770842203
C	1.1035141644295339	-0.7836149590193301	0.00010370663229157797
N	-0.06894019557046605	-1.42237513901933	5.0666322915779605e-06
C	2.448175574429534	1.2836606809806699	0.00012120663229157797
C	3.622953724429534	0.5519055109806699	-0.00018244336770842205
C	3.552715114429534	-0.8996965090193302	0.00019169663229157794
C	2.312695024429534	-1.5146420390193303	-0.00012777336770842206
C	4.912450574429534	1.1773395609806698	9.794663229157797e-05
C	6.046570834429534	0.42351195098066985	-8.348336770842203e-05
C	5.977423744429534	-1.0057881090193304	8.431663229157797e-05
C	4.775785614429534	-1.6467401090193299	-9.307336770842203e-05
F	-2.2437215155704657	2.85487983098067	9.956632291577961e-06
F	-2.5102181355704665	-2.62471251901933	-8.843367708422038e-06
F	2.509761924429534	2.62449959098067	-9.343367708422039e-06
F	2.244152244429534	-2.85513129901933	5.6766322915779606e-06
H	-4.7197020255704665	2.7284305809806697	1.587663229157796e-05
H	-6.896880905570466	1.5817729409806698	-9.793367708422038e-06
H	-7.017620105570465	-0.90661481901933	4.416632291577961e-06
H	-4.962785875570466	-2.25865393901933	-1.2843367708422039e-05
H	4.720383874429534	-2.72813786901933	1.4516632291577961e-05
H	6.897188464429535	-1.5809067690193301	-8.363367708422038e-06
H	7.017389874429535	0.9075230209806698	5.396632291577961e-06
H	4.962136754429534	2.2590127009806698	-1.4983367708422039e-05
C	-6.046672689593617	-0.4228458063641932	4.499917096632261
C	-5.977257069593618	1.0064419936358067	4.500078596632261
C	-4.775454869593618	1.6470435136358066	4.499911406632261
C	-3.552574459593618	0.8997489436358067	4.500186176632261
C	-3.623087659593619	-0.5518387163641932	4.499825986632262
C	-4.912748179593619	-1.1770033363641932	4.500092836632262
C	-2.312441609593619	1.5143898936358067	4.499872086632261
C	-1.1033739095936186	0.7831468336358067	4.5001017866322615
C	-1.1741607695936187	-0.6732926663641933	4.499885996632261
C	-2.4484531195936183	-1.2838909963641931	4.500124806632261
N	0.0689353804063818	1.4222478736358066	4.500007496632262
C	1.1739757504063815	0.6728374436358067	4.499880996632261
C	1.1035140904063814	-0.7836154763641933	4.500103706632261
N	-0.06894026959361844	-1.4223756563641932	4.500005066632261
C	2.4481755004063817	1.2836601636358067	4.500121206632262
C	3.6229536504063815	0.5519049936358067	4.499817556632261
C	3.5527150404063814	-0.8996970263641934	4.500191696632261
C	2.3126949504063816	-1.5146425563641934	4.499872226632261
C	4.912450500406382	1.1773390436358067	4.500097946632262
C	6.046570760406382	0.4235114336358067	4.499916516632261
C	5.977423670406382	-1.0057886263641935	4.500084316632261
C	4.775785540406382	-1.646740626364193	4.499906926632262
F	-2.2437215895936182	2.8548793136358066	4.500009956632262
F	-2.510218209593619	-2.6247130363641933	4.4999911566322615
F	2.5097618504063814	2.6244990736358065	4.499990656632261
F	2.2441521704063816	-2.855131816364193	4.500005676632261
H	-4.7197020995936185	2.7284300636358063	4.500015876632261
H	-6.896880979593618	1.5817724236358066	4.499990206632261
H	-7.017620179593617	-0.9066153363641932	4.500004416632262
H	-4.962785949593618	-2.2586544563641935	4.499987156632262
H	4.720383800406382	-2.7281383863641935	4.500014516632262
H	6.897188390406383	-1.5809072863641933	4.499991636632261
H	7.017389800406383	0.9075225036358067	4.500005396632261
H	4.962136680406382	2.2590121836358064	4.4999850166322615
