68
101g_F TL45.0
C	-6.046672615570465	-0.42284528901933005	-8.290336770842204e-05
C	-5.977256995570466	1.0064425109806698	7.859663229157797e-05
C	-4.775454795570466	1.6470440309806698	-8.859336770842203e-05
C	-3.5525743855704657	0.8997494609806699	0.00018617663229157796
C	-3.6230875855704663	-0.5518381990193301	-0.00017401336770842205
C	-4.912748105570467	-1.17700281901933	9.283663229157797e-05
C	-2.3124415355704664	1.5143904109806698	-0.00012791336770842204
C	-1.103373835570466	0.7831473509806699	0.00010178663229157797
C	-1.1741606955704662	-0.6732921490193301	-0.00011400336770842203
C	-2.448453045570466	-1.28389047901933	0.00012480663229157797
N	0.0689354544295342	1.4222483909806698	7.49663229157796e-06
C	1.173975824429534	0.6728379609806698	-0.00011900336770842203
C	1.1035141644295339	-0.7836149590193301	0.00010370663229157797
N	-0.06894019557046605	-1.42237513901933	5.0666322915779605e-06
C	2.448175574429534	1.2836606809806699	0.00012120663229157797
C	3.622953724429534	0.5519055109806699	-0.00018244336770842205
C	3.552715114429534	-0.8996965090193302	0.00019169663229157794
C	2.312695024429534	-1.5146420390193303	-0.00012777336770842206
C	4.912450574429534	1.1773395609806698	9.794663229157797e-05
C	6.046570834429534	0.42351195098066985	-8.348336770842203e-05
C	5.977423744429534	-1.0057881090193304	8.431663229157797e-05
C	4.775785614429534	-1.6467401090193299	-9.307336770842203e-05
F	-2.2437215155704657	2.85487983098067	9.956632291577961e-06
F	-2.5102181355704665	-2.62471251901933	-8.843367708422038e-06
F	2.509761924429534	2.62449959098067	-9.343367708422039e-06
F	2.244152244429534	-2.85513129901933	5.6766322915779606e-06
H	-4.7197020255704665	2.7284305809806697	1.587663229157796e-05
H	-6.896880905570466	1.5817729409806698	-9.793367708422038e-06
H	-7.017620105570465	-0.90661481901933	4.416632291577961e-06
H	-4.962785875570466	-2.25865393901933	-1.2843367708422039e-05
H	4.720383874429534	-2.72813786901933	1.4516632291577961e-05
H	6.897188464429535	-1.5809067690193301	-8.363367708422038e-06
H	7.017389874429535	0.9075230209806698	5.396632291577961e-06
H	4.962136754429534	2.2590127009806698	-1.4983367708422039e-05
C	-6.036531924252943	-0.21359985692631564	-5.247750485073969
C	-5.987409893422464	0.7969430762552416	-4.235785971914058
C	-4.795498440180616	1.2334555414735047	-3.7423259242469507
C	-3.5628841043555894	0.6870141293828075	-4.22807218443097
C	-3.612780368469534	-0.3391566168578279	-5.255964658458658
C	-4.8927118613964335	-0.7635691614693898	-5.741458732104868
C	-2.332295646322006	1.104712828019561	-3.7517393954795475
C	-1.1137103068294816	0.5698599997153054	-4.226653483681163
C	-1.1638162778441439	-0.4598429564442583	-5.257879965604105
C	-2.4285954641188567	-0.8741434092661367	-5.732579992626842
N	0.04874723050199396	1.0056766022964105	-3.735211134614771
C	1.163646096846885	0.4596897611413919	-4.226768979667835
C	1.1138502836059594	-0.5703370016616821	-5.2576837424874
N	-0.0487504474936095	-1.0057740293446642	-5.74902673728416
C	2.4283131730257876	0.8738120257516875	-3.7515749222005184
C	3.61265800287922	0.33945900328358014	-4.228401509254046
C	3.563011208840705	-0.6872444364105121	-5.255775476972505
C	2.3325614322871253	-1.1047128420698316	-5.732767519031048
C	4.8924033916137	0.7636780628423753	-3.742335788185625
C	6.036426623371331	0.21419176260532752	-4.236056877170338
C	5.987561840504603	-0.7965962281225836	-5.247788007720314
C	4.79583110224839	-1.2331157148538563	-5.741733630679236
F	-2.28261043819975	2.0524314228119835	-2.8025317309153603
F	-2.4713259494989583	-1.8221989006897952	-6.681781540221145
F	2.470873845277853	1.8220685874263172	-2.802554395268632
F	2.28304405345207	-2.052625460853845	-6.681777151762833
H	-4.755101233487944	1.9979901409301613	-2.976584345956575
H	-6.914547013577228	1.2172433556985942	-3.86098244622168
H	-6.999965295614345	-0.5423204904027249	-5.622598291780337
H	-4.927394202203097	-1.5283710982795158	-6.507192411447589
H	4.755777584951122	-1.9978129929541306	-6.507321162135831
H	6.914842872815696	-1.2166207265288853	-5.622565181092793
H	6.999722181374522	0.5429607292636227	-3.8609182805124123
H	4.92674155452181	1.528654963589534	-2.976753171530176
