68
101g_F PD long+short
C	-6.046672615570465	-0.42284528901933005	-8.290336770842204e-05
C	-5.977256995570466	1.0064425109806698	7.859663229157797e-05
C	-4.775454795570466	1.6470440309806698	-8.859336770842203e-05
C	-3.5525743855704657	0.8997494609806699	0.00018617663229157796
C	-3.6230875855704663	-0.5518381990193301	-0.00017401336770842205
C	-4.912748105570467	-1.17700281901933	9.283663229157797e-05
C	-2.3124415355704664	1.5143904109806698	-0.00012791336770842204
C	-1.103373835570466	0.7831473509806699	0.00010178663229157797
C	-1.1741606955704662	-0.6732921490193301	-0.00011400336770842203
C	-2.448453045570466	-1.28389047901933	0.00012480663229157797
N	0.0689354544295342	1.4222483909806698	7.49663229157796e-06
C	1.173975824429534	0.6728379609806698	-0.00011900336770842203
C	1.1035141644295339	-0.7836149590193301	0.00010370663229157797
N	-0.06894019557046605	-1.42237513901933	5.0666322915779605e-06
C	2.448175574429534	1.2836606809806699	0.00012120663229157797
C	3.622953724429534	0.5519055109806699	-0.00018244336770842205
C	3.552715114429534	-0.8996965090193302	0.00019169663229157794
C	2.312695024429534	-1.5146420390193303	-0.00012777336770842206
C	4.912450574429534	1.1773395609806698	9.794663229157797e-05
C	6.046570834429534	0.42351195098066985	-8.348336770842203e-05
C	5.977423744429534	-1.0057881090193304	8.431663229157797e-05
C	4.775785614429534	-1.6467401090193299	-9.307336770842203e-05
F	-2.2437215155704657	2.85487983098067	9.956632291577961e-06
F	-2.5102181355704665	-2.62471251901933	-8.843367708422038e-06
F	2.509761924429534	2.62449959098067	-9.343367708422039e-06
F	2.244152244429534	-2.85513129901933	5.6766322915779606e-06
H	-4.7197020255704665	2.7284305809806697	1.587663229157796e-05
H	-6.896880905570466	1.5817729409806698	-9.793367708422038e-06
H	-7.017620105570465	-0.90661481901933	4.416632291577961e-06
H	-4.962785875570466	-2.25865393901933	-1.2843367708422039e-05
H	4.720383874429534	-2.72813786901933	1.4516632291577961e-05
H	6.897188464429535	-1.5809067690193301	-8.363367708422038e-06
H	7.017389874429535	0.9075230209806698	5.396632291577961e-06
H	4.962136754429534	2.2590127009806698	-1.4983367708422039e-05
C	-2.120314921645363	-2.717171632166981	3.4999168974508548
C	-2.050899301645364	-1.2878838321669814	3.5000783974508547
C	-0.8490971016453648	-0.6472823121669815	3.4999112074508547
C	0.37378330835463586	-1.3945768821669813	3.5001859774508546
C	0.30327010835463525	-2.846164542166981	3.4998257874508547
C	-0.9863904116453652	-3.471329162166981	3.5000926374508547
C	1.613916158354635	-0.7799359321669814	3.4998718874508548
C	2.8229838583546356	-1.5111789921669814	3.500101587450855
C	2.7521969983546355	-2.9676184921669813	3.4998857974508546
C	1.4779046483546356	-3.578216822166981	3.500124607450855
N	3.995293148354636	-0.8720779521669815	3.5000072974508547
C	5.100333518354636	-1.6214883821669814	3.499880797450855
C	5.029871858354635	-3.0779413021669813	3.500103507450855
N	3.8574174983546357	-3.716701482166981	3.500004867450855
C	6.374533268354636	-1.0106656621669814	3.5001210074508546
C	7.549311418354636	-1.7424208321669814	3.499817357450855
C	7.479072808354636	-3.1940228521669813	3.500191497450855
C	6.239052718354636	-3.8089683821669813	3.499872027450855
C	8.838808268354635	-1.1169867821669814	3.500097747450855
C	9.972928528354634	-1.8708143921669815	3.4999163174508547
C	9.903781438354635	-3.3001144521669814	3.5000841174508546
C	8.702143308354634	-3.941066452166981	3.499906727450855
F	1.6826361783546357	0.5605534878330187	3.500009757450855
F	1.416139558354635	-4.919038862166981	3.499990957450855
F	6.436119618354636	0.33017324783301866	3.499990457450855
F	6.170509938354636	-5.149457642166981	3.5000054774508547
H	-0.793344331645365	0.4341042378330185	3.500015677450855
H	-2.9705232116453644	-0.7125534021669815	3.499990007450855
H	-3.0912624116453635	-3.200941162166981	3.5000042174508548
H	-1.0364281816453647	-4.552980282166981	3.499986957450855
H	8.646741568354635	-5.022464212166981	3.5000143174508547
H	10.823546158354636	-3.875233112166981	3.4999914374508547
H	10.943747568354636	-1.3868033221669813	3.5000051974508546
H	8.888494448354635	-0.035313642166981477	3.499984817450855
