68
101g_F cofacial 3.5A
C	-6.046672615570465	-0.42284528901933005	-8.290336770842204e-05
C	-5.977256995570466	1.0064425109806698	7.859663229157797e-05
C	-4.775454795570466	1.6470440309806698	-8.859336770842203e-05
C	-3.5525743855704657	0.8997494609806699	0.00018617663229157796
C	-3.6230875855704663	-0.5518381990193301	-0.00017401336770842205
C	-4.912748105570467	-1.17700281901933	9.283663229157797e-05
C	-2.3124415355704664	1.5143904109806698	-0.00012791336770842204
C	-1.103373835570466	0.7831473509806699	0.00010178663229157797
C	-1.1741606955704662	-0.6732921490193301	-0.00011400336770842203
C	-2.448453045570466	-1.28389047901933	0.00012480663229157797
N	0.0689354544295342	1.4222483909806698	7.49663229157796e-06
C	1.173975824429534	0.6728379609806698	-0.00011900336770842203
C	1.1035141644295339	-0.7836149590193301	0.00010370663229157797
N	-0.06894019557046605	-1.42237513901933	5.0666322915779605e-06
C	2.448175574429534	1.2836606809806699	0.00012120663229157797
C	3.622953724429534	0.5519055109806699	-0.00018244336770842205
C	3.552715114429534	-0.8996965090193302	0.00019169663229157794
C	2.312695024429534	-1.5146420390193303	-0.00012777336770842206
C	4.912450574429534	1.1773395609806698	9.794663229157797e-05
C	6.046570834429534	0.42351195098066985	-8.348336770842203e-05
C	5.977423744429534	-1.0057881090193304	8.431663229157797e-05
C	4.775785614429534	-1.6467401090193299	-9.307336770842203e-05
F	-2.2437215155704657	2.85487983098067	9.956632291577961e-06
F	-2.5102181355704665	-2.62471251901933	-8.843367708422038e-06
F	2.509761924429534	2.62449959098067	-9.343367708422039e-06
F	2.244152244429534	-2.85513129901933	5.6766322915779606e-06
H	-4.7197020255704665	2.7284305809806697	1.587663229157796e-05
H	-6.896880905570466	1.5817729409806698	-9.793367708422038e-06
H	-7.017620105570465	-0.90661481901933	4.416632291577961e-06
H	-4.962785875570466	-2.25865393901933	-1.2843367708422039e-05
H	4.720383874429534	-2.72813786901933	1.4516632291577961e-05
H	6.897188464429535	-1.5809067690193301	-8.363367708422038e-06
H	7.017389874429535	0.9075230209806698	5.396632291577961e-06
H	4.962136754429534	2.2590127009806698	-1.4983367708422039e-05
C	-6.046672673144028	-0.42284569139866807	3.4999170966322684
C	-5.9772570531440286	1.0064421086013318	3.5000785966322683
C	-4.775454853144029	1.6470436286013317	3.4999114066322683
C	-3.5525744431440285	0.8997490586013318	3.5001861766322686
C	-3.623087643144029	-0.5518386013986681	3.4998259866322683
C	-4.9127481631440295	-1.177003221398668	3.5000928366322683
C	-2.312441593144029	1.5143900086013318	3.4998720866322683
C	-1.1033738931440291	0.7831469486013318	3.5001017866322686
C	-1.1741607531440292	-0.6732925513986682	3.4998859966322686
C	-2.4484531031440286	-1.283890881398668	3.5001248066322685
N	0.0689353968559712	1.4222479886013317	3.5000074966322683
C	1.173975766855971	0.6728375586013318	3.4998809966322684
C	1.1035141068559708	-0.7836153613986682	3.5001037066322684
N	-0.06894025314402903	-1.422375541398668	3.5000050666322684
C	2.4481755168559713	1.2836602786013318	3.5001212066322687
C	3.622953666855971	0.5519051086013318	3.4998175566322685
C	3.552715056855971	-0.8996969113986683	3.5001916966322684
C	2.3126949668559713	-1.5146424413986683	3.4998722266322684
C	4.912450516855971	1.1773391586013318	3.5000979466322684
C	6.0465707768559716	0.42351154860133183	3.4999165166322683
C	5.977423686855971	-1.0057885113986684	3.5000843166322686
C	4.775785556855971	-1.646740511398668	3.4999069266322684
F	-2.2437215731440285	2.854879428601332	3.5000099566322684
F	-2.5102181931440293	-2.6247129213986677	3.4999911566322686
F	2.509761866855971	2.624499188601332	3.4999906566322685
F	2.2441521868559713	-2.8551317013986677	3.5000056766322687
H	-4.719702083144029	2.728430178601332	3.5000158766322684
H	-6.896880963144029	1.5817725386013317	3.4999902066322686
H	-7.017620163144028	-0.9066152213986681	3.5000044166322684
H	-4.962785933144029	-2.258654341398668	3.4999871566322684
H	4.720383816855971	-2.728138271398668	3.5000145166322687
H	6.897188406855972	-1.5809071713986682	3.4999916366322683
H	7.017389816855972	0.9075226186013318	3.5000053966322686
H	4.962136696855971	2.259012298601332	3.4999850166322686
