68
101g_F TS45.0
C	-6.046672615570465	-0.42284528901933005	-8.290336770842204e-05
C	-5.977256995570466	1.0064425109806698	7.859663229157797e-05
C	-4.775454795570466	1.6470440309806698	-8.859336770842203e-05
C	-3.5525743855704657	0.8997494609806699	0.00018617663229157796
C	-3.6230875855704663	-0.5518381990193301	-0.00017401336770842205
C	-4.912748105570467	-1.17700281901933	9.283663229157797e-05
C	-2.3124415355704664	1.5143904109806698	-0.00012791336770842204
C	-1.103373835570466	0.7831473509806699	0.00010178663229157797
C	-1.1741606955704662	-0.6732921490193301	-0.00011400336770842203
C	-2.448453045570466	-1.28389047901933	0.00012480663229157797
N	0.0689354544295342	1.4222483909806698	7.49663229157796e-06
C	1.173975824429534	0.6728379609806698	-0.00011900336770842203
C	1.1035141644295339	-0.7836149590193301	0.00010370663229157797
N	-0.06894019557046605	-1.42237513901933	5.0666322915779605e-06
C	2.448175574429534	1.2836606809806699	0.00012120663229157797
C	3.622953724429534	0.5519055109806699	-0.00018244336770842205
C	3.552715114429534	-0.8996965090193302	0.00019169663229157794
C	2.312695024429534	-1.5146420390193303	-0.00012777336770842206
C	4.912450574429534	1.1773395609806698	9.794663229157797e-05
C	6.046570834429534	0.42351195098066985	-8.348336770842203e-05
C	5.977423744429534	-1.0057881090193304	8.431663229157797e-05
C	4.775785614429534	-1.6467401090193299	-9.307336770842203e-05
F	-2.2437215155704657	2.85487983098067	9.956632291577961e-06
F	-2.5102181355704665	-2.62471251901933	-8.843367708422038e-06
F	2.509761924429534	2.62449959098067	-9.343367708422039e-06
F	2.244152244429534	-2.85513129901933	5.6766322915779606e-06
H	-4.7197020255704665	2.7284305809806697	1.587663229157796e-05
H	-6.896880905570466	1.5817729409806698	-9.793367708422038e-06
H	-7.017620105570465	-0.90661481901933	4.416632291577961e-06
H	-4.962785875570466	-2.25865393901933	-1.2843367708422039e-05
H	4.720383874429534	-2.72813786901933	1.4516632291577961e-05
H	6.897188464429535	-1.5809067690193301	-8.363367708422038e-06
H	7.017389874429535	0.9075230209806698	5.396632291577961e-06
H	4.962136754429534	2.2590127009806698	-1.4983367708422039e-05
C	-4.285722587201832	-0.5081863542457669	3.2170442657093306
C	-4.216464228269343	0.9211090670702996	3.2172632040135465
C	-3.3566471435744725	1.578284071625198	4.044024631245565
C	-2.5018775631316394	0.848829106073279	4.933490855783091
C	-2.572088245533334	-0.6027732147965554	4.933119510457332
C	-3.493942622094784	-1.2457626732406086	4.04384778882234
C	-1.6151941922609034	1.4805991333633013	5.788109082921867
C	-0.7699420105934341	0.7669875158920787	6.667238412167589
C	-0.8405170823786842	-0.6894622479633634	6.666941962900699
C	-1.7512678935003676	-1.317678742629543	5.788006034195961
N	0.06892746034689336	1.4222479132713732	7.47327255659983
C	0.8405441216229155	0.6889960598946465	8.279299650118162
C	0.7698893312563974	-0.7674475004558895	8.279543408080702
N	-0.06894173002641102	-1.4223759297793563	7.473258714775945
C	1.7508942475295028	1.317451875279344	9.15850121531247
C	2.5722459644061555	0.6028246657026726	10.013052987447377
C	2.501710790522998	-0.8487629819566448	10.013395320201672
C	1.6155503865650696	-1.4808574690829803	9.158419163614083
C	3.4936018084462948	1.2460997825786635	10.902586847589383
C	4.285777257398465	0.5088437038815866	11.729264774692355
C	4.216476211221333	-0.9204488949643612	11.72946876308546
C	3.3570136601218334	-1.5779836099582627	10.902591556314986
F	-1.5476689825156502	2.821146456995264	5.790859435792858
F	-1.8138781427825457	-2.658459824052267	5.790182163449099
F	1.8135648233906916	2.6582382408551823	9.156011450911285
F	1.5479590010191853	-2.8213928360918628	9.15598583816805
H	-3.301945699097463	2.6597215716076397	4.0464615147906
H	-4.859157825062117	1.4830187366890872	2.547998151010673
H	-4.97986495702607	-1.0053705774076547	2.5479058549360394
H	-3.5446019212105186	-2.3273836723540393	4.045455483462513
H	3.302410740215073	-2.6594200828243704	10.900552930252857
H	4.859400357021713	-1.4821511436098467	12.398697982740366
H	4.979707685555157	1.006273513306762	12.398428788804159
H	3.544166965830994	2.327730325031452	10.900575498394236
