72
101f_F cofacial 5.0A
C	-6.118122123659548	-0.4086978602510537	2.3573605866115735e-06
C	-6.049353203659548	1.0004919197489464	-1.6426394133884265e-06
C	-4.830476933659547	1.6413844597489464	-4.412639413388427e-06
C	-3.630936863659547	0.8925197797489463	1.7477360586611574e-05
C	-3.7005783536595467	-0.5370957202510537	-9.682639413388426e-06
C	-4.967489713659546	-1.1654052202510536	-2.3326394133884265e-06
C	-2.3498145436595466	1.4874076397489464	-3.1226394133884265e-06
C	-1.1802822636595471	0.7714003797489463	6.987360586611573e-06
C	-1.2495458036595468	-0.6547566902510537	-6.422639413388427e-06
C	-2.483216623659547	-1.2537454502510537	4.897360586611573e-06
N	0.06678750634045283	1.3779932897489462	-1.4226394133884267e-06
C	1.249370166340453	0.6536716097489463	-2.1822639413388426e-05
C	1.180352916340453	-0.7724984802510536	2.193736058661157e-05
N	-0.06684510365954699	-1.3791685902510538	3.6073605866115734e-06
C	2.482676576340453	1.2532219697489464	2.8707360586611573e-05
C	3.7002709563404528	0.5372179297489463	-2.6662639413388427e-05
C	3.631256776340453	-0.8924298602510538	4.240736058661157e-05
C	2.350302036340453	-1.487984130251054	-3.611263941338843e-05
C	4.966684336340453	1.1664536497489464	-7.5526394133884265e-06
C	6.117813076340453	0.4105688697489463	1.0457360586611575e-05
C	6.049852746340453	-0.9986619602510537	1.6773605866115734e-06
C	4.831385036340453	-1.6404118502510538	-1.0222639413388425e-05
H	0.11549958634045288	2.383780409748946	-1.4012639413388426e-05
H	-0.11556185365954708	-2.3849560702510537	1.8807360586611573e-05
F	-2.249449743659547	2.846340319748946	9.057360586611575e-06
F	-2.515563733659547	-2.615985460251054	-6.7526394133884265e-06
F	2.514199586340453	2.6154931797489462	3.9473605866115735e-06
F	2.250747896340453	-2.8469654602510537	-1.2962639413388426e-05
H	-4.773415823659548	2.7234653197489465	3.2073605866115734e-06
H	-6.964346623659548	1.5834506397489463	3.0273605866115734e-06
H	-7.085579203659547	-0.8996517402510537	-4.532639413388427e-06
H	-5.016468523659547	-2.247894020251054	3.5873605866115736e-06
H	4.775298446340453	-2.722545400251054	9.807360586611574e-06
H	6.965217526340453	-1.5810243302510538	-1.0326394133884267e-06
H	7.084938486340453	0.9021970197489463	5.887360586611573e-06
H	5.014696296340453	2.248981959748946	-1.1052639413388426e-05
C	-6.1181223860395075	-0.40870791126819	5.0000023573504775
C	-6.049353466039507	1.00048186873181	4.999998357350477
C	-4.8304771960395065	1.64137440873181	4.999995587350478
C	-3.6309371260395067	0.8925097287318099	5.000017477350477
C	-3.700578616039506	-0.53710577126819	4.999990317350477
C	-4.967489976039506	-1.16541527126819	4.999997667350478
C	-2.349814806039506	1.48739758873181	4.999996877350477
C	-1.1802825260395065	0.7713903287318099	5.000006987350478
C	-1.2495460660395061	-0.65476674126819	4.999993577350478
C	-2.4832168860395067	-1.25375550126819	5.000004897350477
N	0.0667872439604935	1.3779832387318098	4.999998577350477
C	1.2493699039604937	0.65366155873181	4.999978177350477
C	1.1803526539604936	-0.77250853126819	5.0000219373504775
N	-0.06684536603950632	-1.3791786412681901	5.000003607350477
C	2.4826763139604933	1.25321191873181	5.000028707350477
C	3.7002706939604932	0.53720787873181	4.999973337350477
C	3.6312565139604933	-0.8924399112681901	5.0000424073504774
C	2.3503017739604934	-1.4879941812681903	4.999963887350478
C	4.966684073960494	1.16644359873181	4.999992447350477
C	6.1178128139604935	0.41055881873181	5.000010457350477
C	6.0498524839604935	-0.99867201126819	5.000001677350477
C	4.831384773960494	-1.6404219012681902	4.999989777350478
H	0.11549932396049355	2.3837703587318098	4.9999859873504775
H	-0.1155621160395064	-2.38496612126819	5.000018807350477
F	-2.2494500060395066	2.8463302687318097	5.000009057350478
F	-2.5155639960395066	-2.6159955112681903	4.999993247350478
F	2.5141993239604936	2.61548312873181	5.000003947350478
F	2.2507476339604935	-2.84697551126819	4.999987037350477
H	-4.773416086039507	2.72345526873181	5.000003207350478
H	-6.9643468860395075	1.58344058873181	5.000003027350477
H	-7.085579466039507	-0.89966179126819	4.999995467350478
H	-5.016468786039507	-2.24790407126819	5.000003587350477
H	4.775298183960493	-2.72255545126819	5.0000098073504775
H	6.9652172639604935	-1.5810343812681902	4.999998967350478
H	7.084938223960494	0.9021869687318099	5.000005887350477
H	5.014696033960494	2.24897190873181	4.999988947350477
