72
101f_F TL45.0
C	-6.118122123659548	-0.4086978602510537	2.3573605866115735e-06
C	-6.049353203659548	1.0004919197489464	-1.6426394133884265e-06
C	-4.830476933659547	1.6413844597489464	-4.412639413388427e-06
C	-3.630936863659547	0.8925197797489463	1.7477360586611574e-05
C	-3.7005783536595467	-0.5370957202510537	-9.682639413388426e-06
C	-4.967489713659546	-1.1654052202510536	-2.3326394133884265e-06
C	-2.3498145436595466	1.4874076397489464	-3.1226394133884265e-06
C	-1.1802822636595471	0.7714003797489463	6.987360586611573e-06
C	-1.2495458036595468	-0.6547566902510537	-6.422639413388427e-06
C	-2.483216623659547	-1.2537454502510537	4.897360586611573e-06
N	0.06678750634045283	1.3779932897489462	-1.4226394133884267e-06
C	1.249370166340453	0.6536716097489463	-2.1822639413388426e-05
C	1.180352916340453	-0.7724984802510536	2.193736058661157e-05
N	-0.06684510365954699	-1.3791685902510538	3.6073605866115734e-06
C	2.482676576340453	1.2532219697489464	2.8707360586611573e-05
C	3.7002709563404528	0.5372179297489463	-2.6662639413388427e-05
C	3.631256776340453	-0.8924298602510538	4.240736058661157e-05
C	2.350302036340453	-1.487984130251054	-3.611263941338843e-05
C	4.966684336340453	1.1664536497489464	-7.5526394133884265e-06
C	6.117813076340453	0.4105688697489463	1.0457360586611575e-05
C	6.049852746340453	-0.9986619602510537	1.6773605866115734e-06
C	4.831385036340453	-1.6404118502510538	-1.0222639413388425e-05
H	0.11549958634045288	2.383780409748946	-1.4012639413388426e-05
H	-0.11556185365954708	-2.3849560702510537	1.8807360586611573e-05
F	-2.249449743659547	2.846340319748946	9.057360586611575e-06
F	-2.515563733659547	-2.615985460251054	-6.7526394133884265e-06
F	2.514199586340453	2.6154931797489462	3.9473605866115735e-06
F	2.250747896340453	-2.8469654602510537	-1.2962639413388426e-05
H	-4.773415823659548	2.7234653197489465	3.2073605866115734e-06
H	-6.964346623659548	1.5834506397489463	3.0273605866115734e-06
H	-7.085579203659547	-0.8996517402510537	-4.532639413388427e-06
H	-5.016468523659547	-2.247894020251054	3.5873605866115736e-06
H	4.775298446340453	-2.722545400251054	9.807360586611574e-06
H	6.965217526340453	-1.5810243302510538	-1.0326394133884267e-06
H	7.084938486340453	0.9021970197489463	5.887360586611573e-06
H	5.014696296340453	2.248981959748946	-1.1052639413388426e-05
C	-6.1081320725300206	-0.2026047952539768	-5.234227388300516
C	-6.059370810889509	0.7938391761418403	-4.236596819571504
C	-4.850409327687421	1.2301957019546086	-3.7422207239531398
C	-3.6410862891468114	0.6831477057980806	-4.230043404158063
C	-3.6904291331683745	-0.32771908826915624	-5.242152105881067
C	-4.947571114552588	-0.7544922563265896	-5.72928240016476
C	-2.3692692483307596	1.08607332250345	-3.766040896304471
C	-1.1903984038567492	0.5627149610442291	-4.23169281348808
C	-1.2394130153380303	-0.44571904391678163	-5.241336241616932
C	-2.463752732276741	-0.8522128297748797	-5.7066171099525445
N	0.04722325384262397	0.9743990675511986	-3.760580514111527
C	1.2392543324073244	0.44499250903231313	-4.231679492883426
C	1.190484068936187	-0.5634945778908051	-5.24128325933509
N	-0.04726374171276303	-0.9752126235741255	-5.712473382202452
C	2.463219817201393	0.8518452701422597	-3.7659707207022155
C	3.6901219572714385	0.32785465246562895	-4.230021185466716
C	3.641403155313928	-0.6831118469517014	-5.242063171085551
C	2.369766412376543	-1.0864415117484492	-5.70660070037208
C	4.946752275167161	0.7552717585369161	-3.742235061929894
C	6.10779679368493	0.20394345132934777	-4.23667606013441
C	6.059844585845984	-0.7925320021462893	-5.23431697506181
C	4.851304028366918	-1.2294907806502564	-5.7292949832457865
H	0.08165576905622884	1.685607461308477	-3.048556904812239
H	-0.08170100797799847	-1.6864230493723444	-6.424495560097528
F	-2.2882224845815635	2.0464866780965774	-2.802812610546881
F	-2.476781679837408	-1.8159309121744804	-6.669852223871972
F	2.475426035227351	1.8156228243387325	-2.8027675310086027
F	2.2895292315376325	-2.0469257369809446	-6.669810610259945
H	-4.80871487558251	1.9952717668858873	-2.976012432792194
H	-6.981993497669809	1.2194107681989128	-3.85618910965824
H	-7.067970483190175	-0.5363901660587522	-5.6141042968311075
H	-4.981183501426257	-1.5199811043692089	-6.49549252601833
H	4.810583226823689	-1.994637471513294	-6.495487572480146
H	6.9828298634924595	-1.2176881460906948	-5.614289396400508
H	7.06729460367948	0.5382188579196288	-3.8563423885701638
H	4.979397833408594	1.5208005573880332	-2.9760284214448234
