72
101f_F PD long+short
C	-6.118122123659548	-0.4086978602510537	2.3573605866115735e-06
C	-6.049353203659548	1.0004919197489464	-1.6426394133884265e-06
C	-4.830476933659547	1.6413844597489464	-4.412639413388427e-06
C	-3.630936863659547	0.8925197797489463	1.7477360586611574e-05
C	-3.7005783536595467	-0.5370957202510537	-9.682639413388426e-06
C	-4.967489713659546	-1.1654052202510536	-2.3326394133884265e-06
C	-2.3498145436595466	1.4874076397489464	-3.1226394133884265e-06
C	-1.1802822636595471	0.7714003797489463	6.987360586611573e-06
C	-1.2495458036595468	-0.6547566902510537	-6.422639413388427e-06
C	-2.483216623659547	-1.2537454502510537	4.897360586611573e-06
N	0.06678750634045283	1.3779932897489462	-1.4226394133884267e-06
C	1.249370166340453	0.6536716097489463	-2.1822639413388426e-05
C	1.180352916340453	-0.7724984802510536	2.193736058661157e-05
N	-0.06684510365954699	-1.3791685902510538	3.6073605866115734e-06
C	2.482676576340453	1.2532219697489464	2.8707360586611573e-05
C	3.7002709563404528	0.5372179297489463	-2.6662639413388427e-05
C	3.631256776340453	-0.8924298602510538	4.240736058661157e-05
C	2.350302036340453	-1.487984130251054	-3.611263941338843e-05
C	4.966684336340453	1.1664536497489464	-7.5526394133884265e-06
C	6.117813076340453	0.4105688697489463	1.0457360586611575e-05
C	6.049852746340453	-0.9986619602510537	1.6773605866115734e-06
C	4.831385036340453	-1.6404118502510538	-1.0222639413388425e-05
H	0.11549958634045288	2.383780409748946	-1.4012639413388426e-05
H	-0.11556185365954708	-2.3849560702510537	1.8807360586611573e-05
F	-2.249449743659547	2.846340319748946	9.057360586611575e-06
F	-2.515563733659547	-2.615985460251054	-6.7526394133884265e-06
F	2.514199586340453	2.6154931797489462	3.9473605866115735e-06
F	2.250747896340453	-2.8469654602510537	-1.2962639413388426e-05
H	-4.773415823659548	2.7234653197489465	3.2073605866115734e-06
H	-6.964346623659548	1.5834506397489463	3.0273605866115734e-06
H	-7.085579203659547	-0.8996517402510537	-4.532639413388427e-06
H	-5.016468523659547	-2.247894020251054	3.5873605866115736e-06
H	4.775298446340453	-2.722545400251054	9.807360586611574e-06
H	6.965217526340453	-1.5810243302510538	-1.0326394133884267e-06
H	7.084938486340453	0.9021970197489463	5.887360586611573e-06
H	5.014696296340453	2.248981959748946	-1.1052639413388426e-05
C	-2.1576422713060026	-2.7005081475507158	3.4999979581928766
C	-2.0888733513060025	-1.291318367550716	3.499993958192877
C	-0.8699970813060018	-0.650425827550716	3.499991188192877
C	0.329542988693998	-1.399290507550716	3.5000130781928767
C	0.2599014986939985	-2.828906007550716	3.499985918192877
C	-1.007009861306001	-3.457215507550716	3.4999932681928767
C	1.6106653086939986	-0.804402647550716	3.4999924781928766
C	2.7801975886939982	-1.520409907550716	3.500002588192877
C	2.7109340486939986	-2.9465669775507157	3.4999891781928767
C	1.477263228693998	-3.545555737550716	3.5000004981928767
N	4.027267358693998	-0.9138169975507162	3.499994178192877
C	5.209850018693999	-1.638138677550716	3.4999737781928766
C	5.140832768693999	-3.064308767550716	3.5000175381928766
N	3.8936347486939984	-3.670978877550716	3.4999992081928766
C	6.443156428693998	-1.038588317550716	3.500024308192877
C	7.660750808693998	-1.754592357550716	3.4999689381928767
C	7.591736628693998	-3.184240147550716	3.5000380081928766
C	6.310781888693999	-3.779794417550716	3.499959488192877
C	8.927164188693999	-1.125356637550716	3.499988048192877
C	10.078292928693998	-1.8812414175507162	3.5000060581928767
C	10.010332598694	-3.2904722475507158	3.4999972781928768
C	8.791864888693999	-3.932222137550716	3.4999853781928767
H	4.075979438693999	0.09197012244928375	3.4999815881928766
H	3.8449179986939983	-4.676766357550716	3.500014408192877
F	1.711030108693998	0.5545300324492837	3.5000046581928768
F	1.444916118693998	-4.907795747550717	3.499988848192877
F	6.4746794386939985	0.3236828924492839	3.4999995481928767
F	6.211227748693998	-5.138775747550715	3.499982638192877
H	-0.8129359713060025	0.4316550324492841	3.499998808192877
H	-3.0038667713060025	-0.7083596475507161	3.499998628192877
H	-3.1250993513060017	-3.191462027550716	3.4999910681928768
H	-1.0559886713060023	-4.539704307550716	3.4999991881928767
H	8.735778298693997	-5.014355687550716	3.5000054081928766
H	10.925697378693998	-3.872834617550716	3.499994568192877
H	11.045418338693999	-1.3896132675507162	3.500001488192877
H	8.975176148693999	-0.04282832755071616	3.499984548192877
