72
101f_F PD short
C	-6.118122123659548	-0.4086978602510537	2.3573605866115735e-06
C	-6.049353203659548	1.0004919197489464	-1.6426394133884265e-06
C	-4.830476933659547	1.6413844597489464	-4.412639413388427e-06
C	-3.630936863659547	0.8925197797489463	1.7477360586611574e-05
C	-3.7005783536595467	-0.5370957202510537	-9.682639413388426e-06
C	-4.967489713659546	-1.1654052202510536	-2.3326394133884265e-06
C	-2.3498145436595466	1.4874076397489464	-3.1226394133884265e-06
C	-1.1802822636595471	0.7714003797489463	6.987360586611573e-06
C	-1.2495458036595468	-0.6547566902510537	-6.422639413388427e-06
C	-2.483216623659547	-1.2537454502510537	4.897360586611573e-06
N	0.06678750634045283	1.3779932897489462	-1.4226394133884267e-06
C	1.249370166340453	0.6536716097489463	-2.1822639413388426e-05
C	1.180352916340453	-0.7724984802510536	2.193736058661157e-05
N	-0.06684510365954699	-1.3791685902510538	3.6073605866115734e-06
C	2.482676576340453	1.2532219697489464	2.8707360586611573e-05
C	3.7002709563404528	0.5372179297489463	-2.6662639413388427e-05
C	3.631256776340453	-0.8924298602510538	4.240736058661157e-05
C	2.350302036340453	-1.487984130251054	-3.611263941338843e-05
C	4.966684336340453	1.1664536497489464	-7.5526394133884265e-06
C	6.117813076340453	0.4105688697489463	1.0457360586611575e-05
C	6.049852746340453	-0.9986619602510537	1.6773605866115734e-06
C	4.831385036340453	-1.6404118502510538	-1.0222639413388425e-05
H	0.11549958634045288	2.383780409748946	-1.4012639413388426e-05
H	-0.11556185365954708	-2.3849560702510537	1.8807360586611573e-05
F	-2.249449743659547	2.846340319748946	9.057360586611575e-06
F	-2.515563733659547	-2.615985460251054	-6.7526394133884265e-06
F	2.514199586340453	2.6154931797489462	3.9473605866115735e-06
F	2.250747896340453	-2.8469654602510537	-1.2962639413388426e-05
H	-4.773415823659548	2.7234653197489465	3.2073605866115734e-06
H	-6.964346623659548	1.5834506397489463	3.0273605866115734e-06
H	-7.085579203659547	-0.8996517402510537	-4.532639413388427e-06
H	-5.016468523659547	-2.247894020251054	3.5873605866115736e-06
H	4.775298446340453	-2.722545400251054	9.807360586611574e-06
H	6.965217526340453	-1.5810243302510538	-1.0326394133884267e-06
H	7.084938486340453	0.9021970197489463	5.887360586611573e-06
H	5.014696296340453	2.248981959748946	-1.1052639413388426e-05
C	-6.219671719975742	-2.5036027447827705	3.499998140853768
C	-6.150902799975742	-1.0944129647827707	3.499994140853768
C	-4.932026529975741	-0.4535204247827706	3.4999913708537678
C	-3.7324864599757412	-1.2023851047827707	3.500013260853768
C	-3.8021279499757408	-2.6320006047827706	3.499986100853768
C	-5.06903930997574	-3.2603101047827705	3.499993450853768
C	-2.4513641399757407	-0.6074972447827707	3.499992660853768
C	-1.2818318599757412	-1.3235045047827707	3.5000027708537678
C	-1.351095399975741	-2.7496615747827704	3.499989360853768
C	-2.5847662199757413	-3.3486503347827705	3.500000680853768
N	-0.03476208997574129	-0.7169115947827709	3.499994360853768
C	1.147820570024259	-1.4412332747827707	3.499973960853768
C	1.0788033200242588	-2.8674033647827706	3.500017720853768
N	-0.1683946999757411	-3.4740734747827706	3.499999390853768
C	2.3811269800242587	-0.8416829147827707	3.500024490853768
C	3.5987213600242587	-1.5576869547827707	3.499969120853768
C	3.5297071800242588	-2.9873347447827707	3.500038190853768
C	2.248752440024259	-3.5828890147827708	3.499959670853768
C	4.865134740024259	-0.9284512347827707	3.499988230853768
C	6.016263480024259	-1.6843360147827708	3.500006240853768
C	5.948303150024259	-3.0935668447827704	3.499997460853768
C	4.729835440024259	-3.7353167347827707	3.499985560853768
H	0.013949990024258759	0.2888755252172291	3.499981770853768
H	-0.2171114499757412	-4.479860954782771	3.500014590853768
F	-2.350999339975741	0.751435435217229	3.500004840853768
F	-2.617113329975741	-4.71089034478277	3.499989030853768
F	2.412649990024259	0.5205882952172292	3.499999730853768
F	2.149198300024259	-4.941870344782771	3.4999828208537678
H	-4.874965419975742	0.6285604352172294	3.499998990853768
H	-7.065896219975742	-0.5114542447827708	3.499998810853768
H	-7.187128799975741	-2.9945566247827706	3.499991250853768
H	-5.1180181199757415	-4.342798904782771	3.499999370853768
H	4.673748850024259	-4.817450284782771	3.500005590853768
H	6.863667930024259	-3.6759292147827707	3.499994750853768
H	6.983388890024259	-1.192707864782771	3.500001670853768
H	4.913146700024259	0.15407707521722916	3.499984730853768
