72
101f_F TS90.0
C	-6.118122123659548	-0.4086978602510537	2.3573605866115735e-06
C	-6.049353203659548	1.0004919197489464	-1.6426394133884265e-06
C	-4.830476933659547	1.6413844597489464	-4.412639413388427e-06
C	-3.630936863659547	0.8925197797489463	1.7477360586611574e-05
C	-3.7005783536595467	-0.5370957202510537	-9.682639413388426e-06
C	-4.967489713659546	-1.1654052202510536	-2.3326394133884265e-06
C	-2.3498145436595466	1.4874076397489464	-3.1226394133884265e-06
C	-1.1802822636595471	0.7714003797489463	6.987360586611573e-06
C	-1.2495458036595468	-0.6547566902510537	-6.422639413388427e-06
C	-2.483216623659547	-1.2537454502510537	4.897360586611573e-06
N	0.06678750634045283	1.3779932897489462	-1.4226394133884267e-06
C	1.249370166340453	0.6536716097489463	-2.1822639413388426e-05
C	1.180352916340453	-0.7724984802510536	2.193736058661157e-05
N	-0.06684510365954699	-1.3791685902510538	3.6073605866115734e-06
C	2.482676576340453	1.2532219697489464	2.8707360586611573e-05
C	3.7002709563404528	0.5372179297489463	-2.6662639413388427e-05
C	3.631256776340453	-0.8924298602510538	4.240736058661157e-05
C	2.350302036340453	-1.487984130251054	-3.611263941338843e-05
C	4.966684336340453	1.1664536497489464	-7.5526394133884265e-06
C	6.117813076340453	0.4105688697489463	1.0457360586611575e-05
C	6.049852746340453	-0.9986619602510537	1.6773605866115734e-06
C	4.831385036340453	-1.6404118502510538	-1.0222639413388425e-05
H	0.11549958634045288	2.383780409748946	-1.4012639413388426e-05
H	-0.11556185365954708	-2.3849560702510537	1.8807360586611573e-05
F	-2.249449743659547	2.846340319748946	9.057360586611575e-06
F	-2.515563733659547	-2.615985460251054	-6.7526394133884265e-06
F	2.514199586340453	2.6154931797489462	3.9473605866115735e-06
F	2.250747896340453	-2.8469654602510537	-1.2962639413388426e-05
H	-4.773415823659548	2.7234653197489465	3.2073605866115734e-06
H	-6.964346623659548	1.5834506397489463	3.0273605866115734e-06
H	-7.085579203659547	-0.8996517402510537	-4.532639413388427e-06
H	-5.016468523659547	-2.247894020251054	3.5873605866115736e-06
H	4.775298446340453	-2.722545400251054	9.807360586611574e-06
H	6.965217526340453	-1.5810243302510538	-1.0326394133884267e-06
H	7.084938486340453	0.9021970197489463	5.887360586611573e-06
H	5.014696296340453	2.248981959748946	-1.1052639413388426e-05
C	-0.034111335321813506	-0.7036257478314064	3.8124384289017303
C	0.03420653189367179	0.7055858958521236	3.81289968404458
C	0.0680621799226955	1.4039194923057339	4.9993172296688595
C	0.034635026273870086	0.7148199663610527	6.233707426368442
C	-0.03464161232256257	-0.714813219040806	6.233363551609494
C	-0.0680058890912769	-1.4029159802815168	4.998358030589475
C	0.06642948091701201	1.3702660234328568	7.484525376401497
C	0.034532830436473774	0.7124951736825684	8.687352156675292
C	-0.03458939592928285	-0.7136687462022107	8.68721834610872
C	-0.0664616736307944	-1.3709118324088772	7.483994796471494
N	0.06680137204233455	1.3779726841867808	9.903590782117107
C	0.0345636791746132	0.7125365316668866	11.119855186901258
C	-0.03461570244816268	-0.7136256992005653	11.119968007876091
N	-0.06686156969651727	-1.3791877255117249	9.903605020535014
C	0.0664004858077682	1.3703252735900866	12.322687563593453
C	0.03468206536189001	0.7148787002968121	13.573519924036797
C	-0.034690781413984184	-0.7147517038945737	13.573804186957165
C	-0.0664180690557058	-1.370859304084072	12.323185885155384
C	0.06806354054705184	1.4038827095954747	14.807983205393098
C	0.03418725938446104	0.7054382299319663	15.994358729169681
C	-0.0341179325596776	-0.7037758837293578	15.994707103235609
C	-0.06799943404159663	-1.4029457730829948	14.808739147746161
H	0.11557103377343987	2.383757012990474	9.903549771557962
H	-0.1156338667247652	-2.3849725129322947	9.903641384000496
F	0.13237467217320728	2.7308671121490633	7.518978694584678
F	-0.13240789405975725	-2.7315232054710785	7.517639528760547
F	0.13238265053370152	2.7309261579037543	12.288218187180085
F	-0.13239900131728888	-2.731468015382207	12.289544631713328
H	0.12052102268126251	2.486223436287197	5.003921637278759
H	0.060250502788231554	1.2429300662891574	2.8707549064405624
H	-0.06011645245569374	-1.2402142728226047	2.86988582946376
H	-0.12047903798512334	-2.4852354004811668	5.001846195344795
H	-0.12048615806615531	-2.4852538179356642	14.805110668313365
H	-0.060134149302306386	-1.2405070486821748	16.937193932585814
H	0.06023565527480234	1.2426828501277496	16.936547402261862
H	0.1205339165329574	2.4861949084605675	14.803527411585758
