52
n06 cofacial 5.0A
C	-4.7260110182525	-0.5393904830423344	7.338618232391516e-06
C	-4.6721085082525	0.8927429369576656	-2.194138176760848e-05
C	-3.4784755682524997	1.5498872869576656	2.5038618232391516e-05
C	-2.2497145882525	0.8134397469576655	-3.219138176760848e-05
C	-2.3046169082525	-0.6416809630423344	4.6818618232391514e-05
C	-3.5849894882525	-1.2840392330423345	-1.5161381767608485e-05
N	-1.0951731582524997	1.4695113269576656	3.6086182323915157e-06
C	0.02732342174750002	0.7260610669576657	3.4658618232391515e-05
C	-0.02731200825250002	-0.7257441030423344	-2.4381381767608482e-05
N	-1.2026014782525	-1.3827318430423343	-5.311381767608484e-06
N	1.2025713417475001	1.3829239869576655	-3.4541381767608486e-05
C	2.3045013117475	0.6418914569576657	4.6438618232391514e-05
C	2.2498462417475	-0.8132400730423344	-6.732138176760848e-05
N	1.0952171517475	-1.4693218230423344	3.4748618232391516e-05
C	3.5850927217475004	1.2839236669576657	-2.743138176760848e-05
C	4.7259584617475	0.5389786369576657	2.6618618232391518e-05
C	4.6721274617475	-0.8931581630423344	-4.531381767608484e-06
C	3.4783649717475003	-1.5499957730423344	7.888618232391516e-06
H	-5.6010054382525	1.4534313769576657	2.918618232391516e-06
H	-5.6943280082525005	-1.0289087330423343	3.7486182323915156e-06
H	-3.5980766182525006	-2.3678504930423343	-1.8013817676084842e-06
H	3.4099959717474997	-2.6317494430423345	-1.731381767608484e-06
H	5.6009701417475	-1.4539398930423344	-4.821381767608484e-06
H	5.6943434217475	1.0283586469576655	4.338618232391516e-06
H	3.5987310617475003	2.3676344369576654	5.308618232391516e-06
H	-3.4106622782525005	2.6315813769576657	-9.111381767608484e-06
C	-4.7260112665480705	-0.5393859123367145	5.000007338616137
C	-4.672108756548071	0.8927475076632855	4.999978058616137
C	-3.478475816548071	1.5498918576632854	5.000025038616137
C	-2.2497148365480713	0.8134443176632854	4.999967808616137
C	-2.3046171565480713	-0.6416763923367145	5.000046818616137
C	-3.584989736548071	-1.2840346623367147	4.999984838616137
N	-1.0951734065480707	1.4695158976632854	5.0000036086161375
C	0.027323173451928993	0.7260656376632856	5.000034658616137
C	-0.027312256548071047	-0.7257395323367145	4.999975618616137
N	-1.202601726548071	-1.3827272723367146	4.9999946886161375
N	1.2025710934519291	1.3829285576632853	4.9999654586161375
C	2.3045010634519287	0.6418960276632856	5.000046438616137
C	2.249845993451929	-0.8132355023367145	4.999932678616137
N	1.095216903451929	-1.4693172523367146	5.000034748616137
C	3.585092473451929	1.2839282376632855	4.999972568616137
C	4.725958213451929	0.5389832076632856	5.000026618616137
C	4.67212721345193	-0.8931535923367145	4.999995468616137
C	3.478364723451929	-1.5499912023367146	5.000007888616137
H	-5.601005686548071	1.4534359476632854	5.000002918616137
H	-5.694328256548071	-1.0289041623367146	5.0000037486161375
H	-3.598076866548072	-2.3678459223367145	4.9999981986161375
H	3.4099957234519285	-2.6317448723367147	4.999998268616137
H	5.600969893451929	-1.4539353223367146	4.999995178616137
H	5.694343173451929	1.0283632176632853	5.0000043386161375
H	3.598730813451929	2.367639007663285	5.000005308616137
H	-3.4106625265480717	2.6315859476632855	4.9999908886161375
