52
n06 TS45.0
C	-4.7260110182525	-0.5393904830423344	7.338618232391516e-06
C	-4.6721085082525	0.8927429369576656	-2.194138176760848e-05
C	-3.4784755682524997	1.5498872869576656	2.5038618232391516e-05
C	-2.2497145882525	0.8134397469576655	-3.219138176760848e-05
C	-2.3046169082525	-0.6416809630423344	4.6818618232391514e-05
C	-3.5849894882525	-1.2840392330423345	-1.5161381767608485e-05
N	-1.0951731582524997	1.4695113269576656	3.6086182323915157e-06
C	0.02732342174750002	0.7260610669576657	3.4658618232391515e-05
C	-0.02731200825250002	-0.7257441030423344	-2.4381381767608482e-05
N	-1.2026014782525	-1.3827318430423343	-5.311381767608484e-06
N	1.2025713417475001	1.3829239869576655	-3.4541381767608486e-05
C	2.3045013117475	0.6418914569576657	4.6438618232391514e-05
C	2.2498462417475	-0.8132400730423344	-6.732138176760848e-05
N	1.0952171517475	-1.4693218230423344	3.4748618232391516e-05
C	3.5850927217475004	1.2839236669576657	-2.743138176760848e-05
C	4.7259584617475	0.5389786369576657	2.6618618232391518e-05
C	4.6721274617475	-0.8931581630423344	-4.531381767608484e-06
C	3.4783649717475003	-1.5499957730423344	7.888618232391516e-06
H	-5.6010054382525	1.4534313769576657	2.918618232391516e-06
H	-5.6943280082525005	-1.0289087330423343	3.7486182323915156e-06
H	-3.5980766182525006	-2.3678504930423343	-1.8013817676084842e-06
H	3.4099959717474997	-2.6317494430423345	-1.731381767608484e-06
H	5.6009701417475	-1.4539398930423344	-4.821381767608484e-06
H	5.6943434217475	1.0283586469576655	4.338618232391516e-06
H	3.5987310617475003	2.3676344369576654	5.308618232391516e-06
H	-3.4106622782525005	2.6315813769576657	-9.111381767608484e-06
C	-3.3496990973337617	-0.5912080286198679	3.2191066878925048
C	-3.295771045639391	0.8409244296866875	3.2190716481068953
C	-2.4440471195357065	1.5109429884597396	4.045049722270669
C	-1.5827414930366537	0.7883315768199038	4.93285256859796
C	-1.6376651997143388	-0.6667883280299429	4.932827882119593
C	-2.5505858599831073	-1.3229825968754767	4.045155057209717
N	-0.7586795604814218	1.4568469997090252	5.731228979587475
C	0.027302236679254695	0.7260678346602447	6.54419348596678
C	-0.027298582999086572	-0.725738638443314	6.544171558934489
N	-0.866089058073982	-1.3953968790070572	5.731197630117855
N	0.8660973619268425	1.3955995156986294	7.357105928896946
C	1.6375191845122707	0.6670119072908282	8.155508925117362
C	1.582906505817328	-0.7881212186972804	8.155522925888242
N	0.7586850201621221	-1.456644104782135	7.357182333195701
C	2.5506870736663196	1.3228790470553538	9.04324899106859
C	3.34963273302044	0.590808642524155	9.869249289832208
C	3.2957979391700367	-0.8413280145633515	9.869292218481936
C	2.443943758984378	-1.5110398069333473	9.043256444767168
H	-3.946828964162227	1.3911511464397919	2.5478077798472603
H	-4.040191980147985	-1.0911874406083641	2.547909193417776
H	-2.5717892980908723	-2.406488246219466	4.064752059658671
H	2.3836661093813585	-2.593098147837355	9.023719949420896
H	3.9467990860653046	-1.3916479264121646	10.540537608972791
H	4.040190463711754	1.0906499321199659	10.540480197371378
H	2.5722468235480394	2.406291544994139	9.024076748139422
H	-2.384132374583431	2.59293448956968	4.064164184620838
