52
n06 TL90.0
C	-4.7260110182525	-0.5393904830423344	7.338618232391516e-06
C	-4.6721085082525	0.8927429369576656	-2.194138176760848e-05
C	-3.4784755682524997	1.5498872869576656	2.5038618232391516e-05
C	-2.2497145882525	0.8134397469576655	-3.219138176760848e-05
C	-2.3046169082525	-0.6416809630423344	4.6818618232391514e-05
C	-3.5849894882525	-1.2840392330423345	-1.5161381767608485e-05
N	-1.0951731582524997	1.4695113269576656	3.6086182323915157e-06
C	0.02732342174750002	0.7260610669576657	3.4658618232391515e-05
C	-0.02731200825250002	-0.7257441030423344	-2.4381381767608482e-05
N	-1.2026014782525	-1.3827318430423343	-5.311381767608484e-06
N	1.2025713417475001	1.3829239869576655	-3.4541381767608486e-05
C	2.3045013117475	0.6418914569576657	4.6438618232391514e-05
C	2.2498462417475	-0.8132400730423344	-6.732138176760848e-05
N	1.0952171517475	-1.4693218230423344	3.4748618232391516e-05
C	3.5850927217475004	1.2839236669576657	-2.743138176760848e-05
C	4.7259584617475	0.5389786369576657	2.6618618232391518e-05
C	4.6721274617475	-0.8931581630423344	-4.531381767608484e-06
C	3.4783649717475003	-1.5499957730423344	7.888618232391516e-06
H	-5.6010054382525	1.4534313769576657	2.918618232391516e-06
H	-5.6943280082525005	-1.0289087330423343	3.7486182323915156e-06
H	-3.5980766182525006	-2.3678504930423343	-1.8013817676084842e-06
H	3.4099959717474997	-2.6317494430423345	-1.731381767608484e-06
H	5.6009701417475	-1.4539398930423344	-4.821381767608484e-06
H	5.6943434217475	1.0283586469576655	4.338618232391516e-06
H	3.5987310617475003	2.3676344369576654	5.308618232391516e-06
H	-3.4106622782525005	2.6315813769576657	-9.111381767608484e-06
C	-4.699040417374429	0.1769142161741467	-6.08841004168052
C	-4.6990591546419616	0.1769442224094982	-4.655262591879539
C	-3.531825370859284	0.13294897216060345	-3.953672963714326
C	-2.277112415788577	0.08576427368015492	-4.6433667602827216
C	-2.277229657033053	0.08568962201813941	-6.0995228413181595
C	-3.5316356581873882	0.13298205765666854	-6.789600448761074
N	-1.1488740471915035	0.04324845170968663	-3.9443199653831433
C	-1.5089499060516212e-05	-3.901537532723961e-05	-4.645009734605631
C	1.4716290370505389e-05	1.894422258890938e-05	-6.097842581525068
N	-1.1489099387338826	0.04325872940465266	-6.798585535268924
N	1.1488746535266614	-0.04322732054360077	-3.9443930758036325
C	2.277103334616833	-0.0857879897770381	-4.643440648190587
C	2.2772406531326315	-0.08567931943388916	-6.099598238753012
N	1.1489099436548886	-0.04329798837082572	-6.798658494669734
C	3.531745226696967	-0.13295336083049825	-3.953680636366893
C	4.699002675914973	-0.1769565771308583	-4.655172975276698
C	4.69909522270873	-0.17692888959512287	-6.088321112111845
C	3.5317183044420744	-0.1329876921908725	-6.789609091806845
H	-5.647723067097484	0.21263807312415747	-4.129921022843908
H	-5.647581337629823	0.2126319061926852	-6.614014721491693
H	-3.503955106319046	0.13192647071015629	-7.873136693303626
H	3.5041187480948905	-0.13193889750660495	-7.873169190431357
H	5.64770754508013	-0.2126453852693904	-6.613757946254018
H	5.6476176409207675	-0.2126511667230943	-4.129703880201547
H	3.504617148272742	-0.13196470806648675	-2.8702240713258313
H	-3.5047768508630033	0.1319647258989859	-2.8701933115597127
