52
n06 cofacial 4.0A
C	-4.7260110182525	-0.5393904830423344	7.338618232391516e-06
C	-4.6721085082525	0.8927429369576656	-2.194138176760848e-05
C	-3.4784755682524997	1.5498872869576656	2.5038618232391516e-05
C	-2.2497145882525	0.8134397469576655	-3.219138176760848e-05
C	-2.3046169082525	-0.6416809630423344	4.6818618232391514e-05
C	-3.5849894882525	-1.2840392330423345	-1.5161381767608485e-05
N	-1.0951731582524997	1.4695113269576656	3.6086182323915157e-06
C	0.02732342174750002	0.7260610669576657	3.4658618232391515e-05
C	-0.02731200825250002	-0.7257441030423344	-2.4381381767608482e-05
N	-1.2026014782525	-1.3827318430423343	-5.311381767608484e-06
N	1.2025713417475001	1.3829239869576655	-3.4541381767608486e-05
C	2.3045013117475	0.6418914569576657	4.6438618232391514e-05
C	2.2498462417475	-0.8132400730423344	-6.732138176760848e-05
N	1.0952171517475	-1.4693218230423344	3.4748618232391516e-05
C	3.5850927217475004	1.2839236669576657	-2.743138176760848e-05
C	4.7259584617475	0.5389786369576657	2.6618618232391518e-05
C	4.6721274617475	-0.8931581630423344	-4.531381767608484e-06
C	3.4783649717475003	-1.5499957730423344	7.888618232391516e-06
H	-5.6010054382525	1.4534313769576657	2.918618232391516e-06
H	-5.6943280082525005	-1.0289087330423343	3.7486182323915156e-06
H	-3.5980766182525006	-2.3678504930423343	-1.8013817676084842e-06
H	3.4099959717474997	-2.6317494430423345	-1.731381767608484e-06
H	5.6009701417475	-1.4539398930423344	-4.821381767608484e-06
H	5.6943434217475	1.0283586469576655	4.338618232391516e-06
H	3.5987310617475003	2.3676344369576654	5.308618232391516e-06
H	-3.4106622782525005	2.6315813769576657	-9.111381767608484e-06
C	-4.726011216888956	-0.5393868264778385	4.000007338616556
C	-4.672108706888957	0.8927465935221615	3.9999780586165565
C	-3.4784757668889563	1.5498909435221615	4.000025038616556
C	-2.2497147868889567	0.8134434035221614	3.999967808616556
C	-2.3046171068889567	-0.6416773064778385	4.000046818616556
C	-3.5849896868889566	-1.2840355764778386	3.999984838616556
N	-1.0951733568889566	1.4695149835221615	4.000003608616557
C	0.0273232231110432	0.7260647235221616	4.000034658616556
C	-0.02731220688895684	-0.7257404464778385	3.9999756186165563
N	-1.202601676888957	-1.3827281864778385	3.9999946886165563
N	1.2025711431110433	1.3829276435221614	3.9999654586165563
C	2.3045011131110433	0.6418951135221616	4.000046438616557
C	2.2498460431110434	-0.8132364164778385	3.9999326786165565
N	1.0952169531110432	-1.4693181664778385	4.000034748616557
C	3.5850925231110438	1.2839273235221615	3.9999725686165566
C	4.7259582631110435	0.5389822935221615	4.000026618616556
C	4.672127263111044	-0.8931545064778386	3.9999954686165564
C	3.4783647731110436	-1.5499921164778385	4.000007888616556
H	-5.6010056368889565	1.4534350335221615	4.000002918616556
H	-5.694328206888957	-1.0289050764778385	4.000003748616557
H	-3.598076816888957	-2.3678468364778382	3.9999981986165563
H	3.409995773111043	-2.6317457864778384	3.9999982686165563
H	5.600969943111044	-1.4539362364778385	3.9999951786165564
H	5.694343223111043	1.0283623035221614	4.000004338616557
H	3.5987308631110437	2.3676380935221615	4.000005308616556
H	-3.410662476888957	2.6315850335221618	3.9999908886165563
