44
84p_H_capped cofacial 4.0A
C	-0.6726290523768106	0.013210787315943051	2.9746130476042092e-06
C	0.6725943676231894	-0.014831822684057028	1.4746130476042092e-06
S	1.6550854276231894	1.486272197315943	-5.653869523957909e-07
C	3.2004417576231896	0.642936927315943	-5.5953869523957905e-06
C	3.1711868576231894	-0.7756580426840569	3.7546130476042094e-06
S	1.5925390876231893	-1.5548925726840568	1.5146130476042092e-06
S	-1.5914642423768108	1.5539471173159431	1.414613047604209e-06
C	-3.1705891623768103	0.775921627315943	-3.855386952395791e-06
C	-3.201026792376811	-0.6426479326840571	-2.2453869523957908e-06
S	-1.6562004323768105	-1.487172022684057	1.134613047604209e-06
C	4.51758938762319	1.039357647315943	-3.9953869523957905e-06
N	5.27702080762319	-0.1095372326840569	-1.5353869523957908e-06
C	4.470803287623189	-1.226098192684057	2.714613047604209e-06
C	-4.469768782376811	1.227525057315943	-9.053869523957909e-07
N	-5.27697568237681	0.11169760731594303	4.946130476042091e-07
C	-4.518560742376811	-1.037888152684057	-1.6853869523957906e-06
H	-6.282283682376811	0.133310247315943	-2.885386952395791e-06
H	6.282349257623189	-0.13015577268405698	-4.2538695239579084e-07
H	-4.8811566023768105	2.223453837315943	1.054613047604209e-06
H	-4.972878982376811	-2.015017432684057	-1.8453869523957908e-06
H	4.97095404762319	2.016923907315943	1.2461304760420919e-07
H	4.88317615762319	-2.221625512684057	-5.08538695239579e-06
C	-0.6726290766545411	0.013213230515608264	4.000002974612301
C	0.6725943433454589	-0.014829379484391815	4.000001474612302
S	1.655085403345459	1.4862746405156082	3.9999994346123016
C	3.200441733345459	0.6429393705156082	3.9999944046123015
C	3.171186833345459	-0.7756555994843917	4.000003754612302
S	1.5925390633454588	-1.5548901294843915	4.000001514612301
S	-1.5914642666545413	1.5539495605156084	4.000001414612302
C	-3.170589186654541	0.7759240705156083	3.9999961446123016
C	-3.2010268166545415	-0.6426454894843918	3.9999977546123016
S	-1.656200456654541	-1.4871695794843918	4.000001134612302
C	4.517589363345459	1.0393600905156082	3.9999960046123015
N	5.277020783345459	-0.10953478948439169	3.9999984646123017
C	4.470803263345458	-1.2260957494843918	4.000002714612301
C	-4.469768806654542	1.2275275005156083	3.9999990946123014
N	-5.276975706654541	0.11170005051560825	4.000000494612301
C	-4.5185607666545415	-1.0378857094843918	3.9999983146123017
H	-6.282283706654542	0.1333126905156082	3.9999971146123015
H	6.2823492333454585	-0.13015332948439176	3.9999995746123016
H	-4.881156626654541	2.223456280515608	4.0000010546123015
H	-4.972879006654542	-2.0150149894843916	3.9999981546123013
H	4.970954023345459	2.0169263505156083	4.000000124612302
H	4.883176133345459	-2.2216230694843917	3.9999949146123015
