44
84p_H_capped PD long+short
C	-0.6726290523768106	0.013210787315943051	2.9746130476042092e-06
C	0.6725943676231894	-0.014831822684057028	1.4746130476042092e-06
S	1.6550854276231894	1.486272197315943	-5.653869523957909e-07
C	3.2004417576231896	0.642936927315943	-5.5953869523957905e-06
C	3.1711868576231894	-0.7756580426840569	3.7546130476042094e-06
S	1.5925390876231893	-1.5548925726840568	1.5146130476042092e-06
S	-1.5914642423768108	1.5539471173159431	1.414613047604209e-06
C	-3.1705891623768103	0.775921627315943	-3.855386952395791e-06
C	-3.201026792376811	-0.6426479326840571	-2.2453869523957908e-06
S	-1.6562004323768105	-1.487172022684057	1.134613047604209e-06
C	4.51758938762319	1.039357647315943	-3.9953869523957905e-06
N	5.27702080762319	-0.1095372326840569	-1.5353869523957908e-06
C	4.470803287623189	-1.226098192684057	2.714613047604209e-06
C	-4.469768782376811	1.227525057315943	-9.053869523957909e-07
N	-5.27697568237681	0.11169760731594303	4.946130476042091e-07
C	-4.518560742376811	-1.037888152684057	-1.6853869523957906e-06
H	-6.282283682376811	0.133310247315943	-2.885386952395791e-06
H	6.282349257623189	-0.13015577268405698	-4.2538695239579084e-07
H	-4.8811566023768105	2.223453837315943	1.054613047604209e-06
H	-4.972878982376811	-2.015017432684057	-1.8453869523957908e-06
H	4.97095404762319	2.016923907315943	1.2461304760420919e-07
H	4.88317615762319	-2.221625512684057	-5.08538695239579e-06
C	2.984756608549328	-1.6731485825373116	3.5000040268401187
C	4.329980028549327	-1.7011911925373115	3.5000025268401185
S	5.312471088549327	-0.20008717253731165	3.5000004868401184
C	6.857827418549327	-1.0434224425373118	3.4999954568401184
C	6.828572518549327	-2.4620174125373113	3.5000048068401184
S	5.2499247485493274	-3.2412519425373114	3.5000025668401187
S	2.0659214185493275	-0.13241225253731145	3.5000024668401184
C	0.4867964985493279	-0.9104377425373116	3.4999971968401185
C	0.4563588685493272	-2.3290073025373115	3.4999988068401184
S	2.001185228549328	-3.1735313925373116	3.5000021868401183
C	8.174975048549328	-0.6470017225373117	3.4999970568401184
N	8.934406468549328	-1.7958966025373115	3.4999995168401186
C	8.128188948549328	-2.9124575625373117	3.5000037668401185
C	-0.8123831214506725	-0.45883431253731155	3.5000001468401187
N	-1.6195900214506722	-1.5746617625373116	3.5000015468401187
C	-0.8611750814506725	-2.7242475225373117	3.4999993668401186
H	-2.6248980214506723	-1.5530491225373115	3.4999981668401183
H	9.939734918549327	-1.8165151425373116	3.5000006268401185
H	-1.2237709414506723	0.5370944674626883	3.5000021068401184
H	-1.3154933214506725	-3.7013768025373115	3.4999992068401187
H	8.628339708549328	0.33056453746268843	3.5000011768401187
H	8.540561818549328	-3.9079848825373116	3.4999959668401184
