44
84p_H_capped cofacial 4.5A
C	-0.6726290523768106	0.013210787315943051	2.9746130476042092e-06
C	0.6725943676231894	-0.014831822684057028	1.4746130476042092e-06
S	1.6550854276231894	1.486272197315943	-5.653869523957909e-07
C	3.2004417576231896	0.642936927315943	-5.5953869523957905e-06
C	3.1711868576231894	-0.7756580426840569	3.7546130476042094e-06
S	1.5925390876231893	-1.5548925726840568	1.5146130476042092e-06
S	-1.5914642423768108	1.5539471173159431	1.414613047604209e-06
C	-3.1705891623768103	0.775921627315943	-3.855386952395791e-06
C	-3.201026792376811	-0.6426479326840571	-2.2453869523957908e-06
S	-1.6562004323768105	-1.487172022684057	1.134613047604209e-06
C	4.51758938762319	1.039357647315943	-3.9953869523957905e-06
N	5.27702080762319	-0.1095372326840569	-1.5353869523957908e-06
C	4.470803287623189	-1.226098192684057	2.714613047604209e-06
C	-4.469768782376811	1.227525057315943	-9.053869523957909e-07
N	-5.27697568237681	0.11169760731594303	4.946130476042091e-07
C	-4.518560742376811	-1.037888152684057	-1.6853869523957906e-06
H	-6.282283682376811	0.133310247315943	-2.885386952395791e-06
H	6.282349257623189	-0.13015577268405698	-4.2538695239579084e-07
H	-4.8811566023768105	2.223453837315943	1.054613047604209e-06
H	-4.972878982376811	-2.015017432684057	-1.8453869523957908e-06
H	4.97095404762319	2.016923907315943	1.2461304760420919e-07
H	4.88317615762319	-2.221625512684057	-5.08538695239579e-06
C	-0.6726290796892574	0.013213535915566416	4.500002974612208
C	0.6725943403107425	-0.014829074084433663	4.500001474612208
S	1.6550854003107427	1.4862749459155664	4.499999434612208
C	3.2004417303107426	0.6429396759155663	4.499994404612209
C	3.1711868303107424	-0.7756552940844336	4.500003754612209
S	1.5925390603107425	-1.5548898240844333	4.500001514612208
S	-1.5914642696892576	1.5539498659155666	4.500001414612209
C	-3.1705891896892573	0.7759243759155664	4.499996144612208
C	-3.201026819689258	-0.6426451840844337	4.499997754612208
S	-1.6562004596892572	-1.4871692740844336	4.500001134612209
C	4.517589360310743	1.0393603959155664	4.499996004612208
N	5.277020780310743	-0.10953448408443354	4.499998464612208
C	4.470803260310743	-1.2260954440844336	4.500002714612208
C	-4.469768809689257	1.2275278059155665	4.499999094612209
N	-5.276975709689257	0.11170035591556639	4.500000494612208
C	-4.518560769689257	-1.0378854040844336	4.499998314612208
H	-6.282283709689257	0.13331299591556636	4.499997114612208
H	6.282349230310743	-0.1301530240844336	4.499999574612208
H	-4.881156629689257	2.2234565859155664	4.500001054612208
H	-4.972879009689257	-2.0150146840844334	4.499998154612208
H	4.970954020310743	2.0169266559155665	4.5000001246122086
H	4.883176130310743	-2.2216227640844335	4.499994914612208
