44
84p_H_capped TS90.0
C	-0.6726290523768106	0.013210787315943051	2.9746130476042092e-06
C	0.6725943676231894	-0.014831822684057028	1.4746130476042092e-06
S	1.6550854276231894	1.486272197315943	-5.653869523957909e-07
C	3.2004417576231896	0.642936927315943	-5.5953869523957905e-06
C	3.1711868576231894	-0.7756580426840569	3.7546130476042094e-06
S	1.5925390876231893	-1.5548925726840568	1.5146130476042092e-06
S	-1.5914642423768108	1.5539471173159431	1.414613047604209e-06
C	-3.1705891623768103	0.775921627315943	-3.855386952395791e-06
C	-3.201026792376811	-0.6426479326840571	-2.2453869523957908e-06
S	-1.6562004323768105	-1.487172022684057	1.134613047604209e-06
C	4.51758938762319	1.039357647315943	-3.9953869523957905e-06
N	5.27702080762319	-0.1095372326840569	-1.5353869523957908e-06
C	4.470803287623189	-1.226098192684057	2.714613047604209e-06
C	-4.469768782376811	1.227525057315943	-9.053869523957909e-07
N	-5.27697568237681	0.11169760731594303	4.946130476042091e-07
C	-4.518560742376811	-1.037888152684057	-1.6853869523957906e-06
H	-6.282283682376811	0.133310247315943	-2.885386952395791e-06
H	6.282349257623189	-0.13015577268405698	-4.2538695239579084e-07
H	-4.8811566023768105	2.223453837315943	1.054613047604209e-06
H	-4.972878982376811	-2.015017432684057	-1.8453869523957908e-06
H	4.97095404762319	2.016923907315943	1.2461304760420919e-07
H	4.88317615762319	-2.221625512684057	-5.08538695239579e-06
C	-2.0959873947306986e-05	-0.0008516660330241453	8.480939027497062
C	-1.7502883631757184e-05	-0.0007581104900909167	9.826454701478516
S	0.03179515166614763	1.5202299773422647	10.777341210756472
C	0.01484571188296548	0.7095713661655314	12.339994690238854
C	-0.014832574340161721	-0.7090147484418557	12.340410551644561
S	-0.0318107234179129	-1.5209126317807224	10.7784026118571
S	0.03178838866720326	1.5200013044855587	7.530086277394907
C	0.01483833563217557	0.7093018935951307	5.96757600959935
C	-0.014832198226059348	-0.7092837107291036	5.966808868270891
S	-0.031815130531925834	-1.5211415260710213	7.528957353156738
C	0.02370732468140336	1.1333557537918142	13.648564723169962
N	1.8938528767619405e-05	0.0008403426574287628	14.431854727500465
C	-0.023679864083990584	-1.1320875140454754	13.649162000288552
C	0.023708225499733164	1.1335466026700256	4.659236949991517
N	2.7173902441492816e-05	0.0013311911590824464	3.8755397206258486
C	-0.023671460768939022	-1.1318961459668018	4.657827914273193
H	4.280278920236017e-05	0.001916822330056928	2.869999598166748
H	2.6370041387451636e-05	0.0012487568909957565	15.437394507775194
H	0.0443465725385965	2.1204392695492333	4.227113129805646
H	-0.044297126630324236	-2.1180963930905405	4.224041852359152
H	0.044337749653456014	2.1199729366141677	14.08138827586717
H	-0.044303549048650054	-2.1185584246120617	14.08226226011723
