72
101a cofacial 4.5A
C	-6.141123552679017	-0.1388998136432944	6.2033710412047635e-06
C	-6.011205042679016	1.2656170463567056	-6.036628958795236e-06
C	-4.761402272679017	1.8456048063567057	2.593371041204763e-06
C	-3.5896573926790163	1.0515144263567056	-1.4476628958795238e-05
C	-3.721463442679017	-0.3721457836432944	7.123371041204763e-06
C	-5.018840942679017	-0.9380783436432947	-9.436628958795237e-06
C	-2.2853902026790167	1.6160410563567056	1.1403371041204762e-05
C	-1.1597691226790166	0.8281179563567056	-4.756628958795237e-06
C	-1.2921378426790167	-0.5985669436432945	-4.606628958795236e-06
C	-2.5431622126790168	-1.1664348036432943	9.863371041204763e-06
N	0.1261024673209834	1.3574585563567054	-4.5966289587952364e-06
C	1.2924914673209835	0.6003438363567055	1.0823371041204762e-05
C	1.1597564673209835	-0.8263070436432947	-1.664662895879524e-05
N	-0.12591813267901664	-1.3555261836432946	1.7203371041204764e-05
C	2.5440242273209837	1.1674041563567057	-1.5226628958795237e-05
C	3.7219520973209836	0.3722127363567056	-1.566628958795237e-06
C	3.5891928073209836	-1.0513613636432946	5.373371041204763e-06
C	2.2847259273209835	-1.6149336736432947	4.2337104120476294e-07
C	5.020023707320983	0.9366998663567055	1.3183371041204762e-05
C	6.141490407320983	0.13627231635670545	-4.956628958795236e-06
C	6.010341187320983	-1.2681252936432945	2.063371041204763e-06
C	4.759978967320984	-1.8467619836432942	-6.316628958795237e-06
H	0.2192188273209834	2.3608093863567055	8.193371041204762e-06
H	-0.2190229726790165	-2.358875253643294	-4.3166289587952366e-06
H	-2.1802509726790165	2.6980921363567054	-1.0066628958795237e-05
H	-4.662710642679016	2.927664386356706	6.337104120476297e-08
H	-6.899475402679016	1.8893013063567055	3.933371041204763e-06
H	-7.128621712679017	-0.5893283836432945	-7.86628958795237e-07
H	-5.119978082679016	-2.0199150336432945	1.743371041204763e-06
H	-2.638247952679017	-2.2493971336432943	1.843371041204763e-06
H	2.1786567773209833	-2.6968886336432947	2.703371041204763e-06
H	4.659732037320984	-2.9286775136432945	-3.776628958795237e-06
H	6.898021987320983	-1.8926655036432947	-2.416628958795237e-06
H	7.129458927320983	0.5856270063567055	3.723371041204763e-06
H	5.122686667320983	2.0184001563567056	5.63371041204763e-07
H	2.6400534573209837	2.2502925863567054	1.8233710412047629e-06
C	-6.141123477128434	-0.13889651833108493	4.500006203369834
C	-6.0112049671284336	1.2656203416689151	4.4999939633698345
C	-4.761402197128434	1.8456081016689152	4.500002593369834
C	-3.589657317128433	1.051517721668915	4.499985523369834
C	-3.721463367128434	-0.372142488331085	4.500007123369834
C	-5.018840867128434	-0.9380750483310852	4.499990563369834
C	-2.2853901271284336	1.6160443516689151	4.500011403369834
C	-1.1597690471284334	0.828121251668915	4.499995243369834
C	-1.2921377671284335	-0.5985636483310851	4.499995393369834
C	-2.5431621371284336	-1.1664315083310848	4.500009863369834
N	0.12610254287156647	1.357461851668915	4.499995403369835
C	1.2924915428715666	0.600347131668915	4.500010823369834
C	1.1597565428715666	-0.8263037483310852	4.499983353369834
N	-0.12591805712843357	-1.355522888331085	4.5000172033698345
C	2.544024302871567	1.1674074516689152	4.499984773369834
C	3.7219521728715668	0.37221603166891504	4.499998433369834
C	3.5891928828715667	-1.051358068331085	4.500005373369834
C	2.2847260028715666	-1.614930378331085	4.500000423369834
C	5.020023782871566	0.936703161668915	4.500013183369834
C	6.141490482871566	0.13627561166891491	4.499995043369834
C	6.010341262871566	-1.268121998331085	4.500002063369834
C	4.759979042871566	-1.8467586883310847	4.499993683369834
H	0.21921890287156648	2.360812681668915	4.500008193369834
H	-0.21902289712843342	-2.358871958331085	4.499995683369834
H	-2.1802508971284333	2.6980954316689147	4.499989933369834
H	-4.662710567128434	2.927667681668915	4.500000063369834
H	-6.8994753271284335	1.889304601668915	4.500003933369834
H	-7.128621637128434	-0.5893250883310851	4.4999992133698345
H	-5.1199780071284335	-2.019911738331085	4.500001743369834
H	-2.6382478771284337	-2.249393838331085	4.5000018433698346
H	2.1786568528715664	-2.6968853383310853	4.500002703369834
H	4.659732112871566	-2.928674218331085	4.499996223369834
H	6.898022062871566	-1.8926622083310851	4.499997583369834
H	7.129459002871566	0.5856303016689149	4.500003723369834
H	5.122686742871566	2.018403451668915	4.500000563369834
H	2.640053532871567	2.2502958816689147	4.500001823369834
