72
101a cofacial 4.0A
C	-6.141123552679017	-0.1388998136432944	6.2033710412047635e-06
C	-6.011205042679016	1.2656170463567056	-6.036628958795236e-06
C	-4.761402272679017	1.8456048063567057	2.593371041204763e-06
C	-3.5896573926790163	1.0515144263567056	-1.4476628958795238e-05
C	-3.721463442679017	-0.3721457836432944	7.123371041204763e-06
C	-5.018840942679017	-0.9380783436432947	-9.436628958795237e-06
C	-2.2853902026790167	1.6160410563567056	1.1403371041204762e-05
C	-1.1597691226790166	0.8281179563567056	-4.756628958795237e-06
C	-1.2921378426790167	-0.5985669436432945	-4.606628958795236e-06
C	-2.5431622126790168	-1.1664348036432943	9.863371041204763e-06
N	0.1261024673209834	1.3574585563567054	-4.5966289587952364e-06
C	1.2924914673209835	0.6003438363567055	1.0823371041204762e-05
C	1.1597564673209835	-0.8263070436432947	-1.664662895879524e-05
N	-0.12591813267901664	-1.3555261836432946	1.7203371041204764e-05
C	2.5440242273209837	1.1674041563567057	-1.5226628958795237e-05
C	3.7219520973209836	0.3722127363567056	-1.566628958795237e-06
C	3.5891928073209836	-1.0513613636432946	5.373371041204763e-06
C	2.2847259273209835	-1.6149336736432947	4.2337104120476294e-07
C	5.020023707320983	0.9366998663567055	1.3183371041204762e-05
C	6.141490407320983	0.13627231635670545	-4.956628958795236e-06
C	6.010341187320983	-1.2681252936432945	2.063371041204763e-06
C	4.759978967320984	-1.8467619836432942	-6.316628958795237e-06
H	0.2192188273209834	2.3608093863567055	8.193371041204762e-06
H	-0.2190229726790165	-2.358875253643294	-4.3166289587952366e-06
H	-2.1802509726790165	2.6980921363567054	-1.0066628958795237e-05
H	-4.662710642679016	2.927664386356706	6.337104120476297e-08
H	-6.899475402679016	1.8893013063567055	3.933371041204763e-06
H	-7.128621712679017	-0.5893283836432945	-7.86628958795237e-07
H	-5.119978082679016	-2.0199150336432945	1.743371041204763e-06
H	-2.638247952679017	-2.2493971336432943	1.843371041204763e-06
H	2.1786567773209833	-2.6968886336432947	2.703371041204763e-06
H	4.659732037320984	-2.9286775136432945	-3.776628958795237e-06
H	6.898021987320983	-1.8926655036432947	-2.416628958795237e-06
H	7.129458927320983	0.5856270063567055	3.723371041204763e-06
H	5.122686667320983	2.0184001563567056	5.63371041204763e-07
H	2.6400534573209837	2.2502925863567054	1.8233710412047629e-06
C	-6.141123485522943	-0.13889688447688597	4.000006203369968
C	-6.011204975522943	1.265619975523114	3.999993963369968
C	-4.761402205522943	1.845607735523114	4.0000025933699686
C	-3.5896573255229423	1.0515173555231139	3.9999855233699684
C	-3.721463375522943	-0.372142854476886	4.0000071233699686
C	-5.018840875522943	-0.9380754144768862	3.9999905633699684
C	-2.2853901355229427	1.616043985523114	4.000011403369968
C	-1.1597690555229427	0.828120885523114	3.9999952433699684
C	-1.2921377755229428	-0.5985640144768861	3.9999953933699683
C	-2.5431621455229427	-1.166431874476886	4.000009863369968
N	0.12610253447705724	1.3574614855231137	3.9999954033699683
C	1.2924915344770573	0.600346765523114	4.000010823369968
C	1.1597565344770573	-0.8263041144768862	3.9999833533699682
N	-0.1259180655229428	-1.3555232544768863	4.000017203369969
C	2.5440242944770577	1.167407085523114	3.9999847733699685
C	3.7219521644770577	0.372215665523114	3.999998433369968
C	3.5891928744770576	-1.0513584344768863	4.0000053733699685
C	2.2847259944770575	-1.6149307444768863	4.000000423369968
C	5.020023774477057	0.936702795523114	4.000013183369968
C	6.141490474477057	0.13627524552311387	3.9999950433699683
C	6.010341254477057	-1.2681223644768862	4.000002063369968
C	4.759979034477057	-1.846759054476886	3.999993683369968
H	0.21921889447705725	2.360812315523114	4.000008193369968
H	-0.21902290552294265	-2.3588723244768857	3.9999956833699684
H	-2.1802509055229424	2.698095065523114	3.999989933369968
H	-4.662710575522943	2.9276673155231143	4.000000063369968
H	-6.899475335522943	1.8893042355231138	4.000003933369968
H	-7.128621645522943	-0.5893254544768861	3.999999213369968
H	-5.119978015522943	-2.019912104476886	4.000001743369968
H	-2.6382478855229428	-2.2493942044768858	4.000001843369969
H	2.1786568444770573	-2.696885704476886	4.000002703369968
H	4.659732104477057	-2.928674584476886	3.999996223369968
H	6.898022054477057	-1.8926625744768864	3.9999975833699684
H	7.129458994477057	0.5856299355231139	4.000003723369968
H	5.122686734477057	2.018403085523114	4.0000005633699685
H	2.6400535244770578	2.250295515523114	4.000001823369968
