72
101a PD long
C	-6.141123552679017	-0.1388998136432944	6.2033710412047635e-06
C	-6.011205042679016	1.2656170463567056	-6.036628958795236e-06
C	-4.761402272679017	1.8456048063567057	2.593371041204763e-06
C	-3.5896573926790163	1.0515144263567056	-1.4476628958795238e-05
C	-3.721463442679017	-0.3721457836432944	7.123371041204763e-06
C	-5.018840942679017	-0.9380783436432947	-9.436628958795237e-06
C	-2.2853902026790167	1.6160410563567056	1.1403371041204762e-05
C	-1.1597691226790166	0.8281179563567056	-4.756628958795237e-06
C	-1.2921378426790167	-0.5985669436432945	-4.606628958795236e-06
C	-2.5431622126790168	-1.1664348036432943	9.863371041204763e-06
N	0.1261024673209834	1.3574585563567054	-4.5966289587952364e-06
C	1.2924914673209835	0.6003438363567055	1.0823371041204762e-05
C	1.1597564673209835	-0.8263070436432947	-1.664662895879524e-05
N	-0.12591813267901664	-1.3555261836432946	1.7203371041204764e-05
C	2.5440242273209837	1.1674041563567057	-1.5226628958795237e-05
C	3.7219520973209836	0.3722127363567056	-1.566628958795237e-06
C	3.5891928073209836	-1.0513613636432946	5.373371041204763e-06
C	2.2847259273209835	-1.6149336736432947	4.2337104120476294e-07
C	5.020023707320983	0.9366998663567055	1.3183371041204762e-05
C	6.141490407320983	0.13627231635670545	-4.956628958795236e-06
C	6.010341187320983	-1.2681252936432945	2.063371041204763e-06
C	4.759978967320984	-1.8467619836432942	-6.316628958795237e-06
H	0.2192188273209834	2.3608093863567055	8.193371041204762e-06
H	-0.2190229726790165	-2.358875253643294	-4.3166289587952366e-06
H	-2.1802509726790165	2.6980921363567054	-1.0066628958795237e-05
H	-4.662710642679016	2.927664386356706	6.337104120476297e-08
H	-6.899475402679016	1.8893013063567055	3.933371041204763e-06
H	-7.128621712679017	-0.5893283836432945	-7.86628958795237e-07
H	-5.119978082679016	-2.0199150336432945	1.743371041204763e-06
H	-2.638247952679017	-2.2493971336432943	1.843371041204763e-06
H	2.1786567773209833	-2.6968886336432947	2.703371041204763e-06
H	4.659732037320984	-2.9286775136432945	-3.776628958795237e-06
H	6.898021987320983	-1.8926655036432947	-2.416628958795237e-06
H	7.129458927320983	0.5856270063567055	3.723371041204763e-06
H	5.122686667320983	2.0184001563567056	5.63371041204763e-07
H	2.6400534573209837	2.2502925863567054	1.8233710412047629e-06
C	-2.0862432562630113	-0.5156764305150972	3.5000064112048723
C	-1.9563247462630107	0.8888404294849028	3.4999941712048726
C	-0.7065219762630112	1.4688281894849027	3.5000028012048725
C	0.46522290373698916	0.6747378094849028	3.4999857312048723
C	0.3334168537369885	-0.7489224005150972	3.5000073312048725
C	-0.9639606462630111	-1.3148549605150976	3.4999907712048723
C	1.7694900937369888	1.2392644394849026	3.5000116112048727
C	2.895111173736989	0.4513413394849028	3.4999954512048723
C	2.7627424537369887	-0.9753435605150973	3.4999956012048723
C	1.5117180837369888	-1.5432114205150973	3.5000100712048727
N	4.1809827637369885	0.9806819394849027	3.4999956112048727
C	5.347371763736989	0.2235672194849027	3.5000110312048727
C	5.214636763736989	-1.2030836605150976	3.4999835612048726
N	3.9289621637369887	-1.7323028005150976	3.5000174112048725
C	6.598904523736989	0.7906275394849029	3.4999849812048724
C	7.7768323937369885	-0.0045638805150972055	3.4999986412048725
C	7.644073103736989	-1.4281379805150975	3.5000055812048725
C	6.339606223736989	-1.9917102905150976	3.5000006312048724
C	9.07490400373699	0.5599232494849028	3.5000133912048725
C	10.196370703736989	-0.24050430051509736	3.4999952512048726
C	10.065221483736988	-1.6449019105150975	3.5000022712048726
C	8.814859263736988	-2.223538600515097	3.4999938912048725
H	4.274099123736988	1.9840327694849025	3.5000084012048727
H	3.835857323736989	-2.735651870515097	3.4999958912048723
H	1.874629323736989	2.3213155194849024	3.4999901412048726
H	-0.6078303462630109	2.550887769484903	3.5000002712048723
H	-2.844595106263011	1.5125246894849025	3.5000041412048724
H	-3.0737414162630117	-0.9661050005150973	3.4999994212048726
H	-1.0650977862630107	-2.3966916505150975	3.5000019512048723
H	1.4166323437369888	-2.6261737505150973	3.5000020512048726
H	6.233537073736988	-3.0736652505150976	3.5000029112048727
H	8.714612333736989	-3.3054541305150975	3.4999964312048726
H	10.95290228373699	-2.2694421205150976	3.4999977912048723
H	11.184339223736988	0.2088503894849027	3.5000039312048723
H	9.17756696373699	1.6416235394849026	3.5000007712048724
H	6.694933753736989	1.8735159694849024	3.5000020312048723
