72
101a TL45.0
C	-6.141123552679017	-0.1388998136432944	6.2033710412047635e-06
C	-6.011205042679016	1.2656170463567056	-6.036628958795236e-06
C	-4.761402272679017	1.8456048063567057	2.593371041204763e-06
C	-3.5896573926790163	1.0515144263567056	-1.4476628958795238e-05
C	-3.721463442679017	-0.3721457836432944	7.123371041204763e-06
C	-5.018840942679017	-0.9380783436432947	-9.436628958795237e-06
C	-2.2853902026790167	1.6160410563567056	1.1403371041204762e-05
C	-1.1597691226790166	0.8281179563567056	-4.756628958795237e-06
C	-1.2921378426790167	-0.5985669436432945	-4.606628958795236e-06
C	-2.5431622126790168	-1.1664348036432943	9.863371041204763e-06
N	0.1261024673209834	1.3574585563567054	-4.5966289587952364e-06
C	1.2924914673209835	0.6003438363567055	1.0823371041204762e-05
C	1.1597564673209835	-0.8263070436432947	-1.664662895879524e-05
N	-0.12591813267901664	-1.3555261836432946	1.7203371041204764e-05
C	2.5440242273209837	1.1674041563567057	-1.5226628958795237e-05
C	3.7219520973209836	0.3722127363567056	-1.566628958795237e-06
C	3.5891928073209836	-1.0513613636432946	5.373371041204763e-06
C	2.2847259273209835	-1.6149336736432947	4.2337104120476294e-07
C	5.020023707320983	0.9366998663567055	1.3183371041204762e-05
C	6.141490407320983	0.13627231635670545	-4.956628958795236e-06
C	6.010341187320983	-1.2681252936432945	2.063371041204763e-06
C	4.759978967320984	-1.8467619836432942	-6.316628958795237e-06
H	0.2192188273209834	2.3608093863567055	8.193371041204762e-06
H	-0.2190229726790165	-2.358875253643294	-4.3166289587952366e-06
H	-2.1802509726790165	2.6980921363567054	-1.0066628958795237e-05
H	-4.662710642679016	2.927664386356706	6.337104120476297e-08
H	-6.899475402679016	1.8893013063567055	3.933371041204763e-06
H	-7.128621712679017	-0.5893283836432945	-7.86628958795237e-07
H	-5.119978082679016	-2.0199150336432945	1.743371041204763e-06
H	-2.638247952679017	-2.2493971336432943	1.843371041204763e-06
H	2.1786567773209833	-2.6968886336432947	2.703371041204763e-06
H	4.659732037320984	-2.9286775136432945	-3.776628958795237e-06
H	6.898021987320983	-1.8926655036432947	-2.416628958795237e-06
H	7.129458927320983	0.5856270063567055	3.723371041204763e-06
H	5.122686667320983	2.0184001563567056	5.63371041204763e-07
H	2.6400534573209837	2.2502925863567054	1.8233710412047629e-06
C	-6.1219789598415915	0.06713076539997713	-4.804530266803484
C	-6.030283015433437	1.0602986793052107	-3.8071558245888664
C	-4.799263972501892	1.4381371012292632	-3.317030321700255
C	-3.609029116411086	0.8430347290061603	-3.7994821323788703
C	-3.7020919417656173	-0.1636732335696419	-4.8104517745758635
C	-4.980945162309041	-0.530248615039523	-5.293799444741509
C	-2.3232661538497896	1.2084199790729684	-3.3166670096883712
C	-1.179205924279617	0.618937894898591	-3.7977934910510145
C	-1.2727469913340996	-0.3898861453793894	-4.810944716907249
C	-2.5053131101018917	-0.7591074186526896	-5.292600501874481
N	0.08915865631227832	0.9598691153075988	-3.3409736026618546
C	1.273051232761754	0.3911268295877749	-3.797719241569845
C	1.1791456930716349	-0.6176437399134335	-4.810890008078675
N	-0.08902789375335902	-0.9585180314590019	-5.267587443385748
C	2.506147014068165	0.7597694966517501	-3.31660695249939
C	3.7025770565881757	0.16369734163039254	-3.799407740521438
C	3.6085620168359696	-0.8429134734588536	-4.810389484454548
C	2.322572745537426	-1.2076308727939216	-5.292530959923603
C	4.982161766833586	0.5292295712010732	-3.3170336291799956
C	6.122415565501747	-0.06901235575964075	-3.807237355997851
C	6.029489120581578	-1.0620587651620428	-4.804612044636528
C	4.797875558469964	-1.4389235294876508	-5.293822718396055
H	0.15496761977728	1.6693393903987481	-2.6284396358822537
H	-0.15482484245294795	-1.6679812219049839	-5.980125590370479
H	-2.247585766851805	1.9734367670544304	-2.5479599191750326
H	-4.730016488371244	2.2033205588453337	-2.5487256720719156
H	-6.933155607472198	1.526834598596311	-3.4261419045254478
H	-7.094847011253686	-0.22584945815356258	-5.186274757101176
H	-5.0526386050689815	-1.2952140107865233	-6.062101038269331
H	-2.570938696188891	-1.5250213486566393	-6.06131230774931
H	2.2459634319404174	-1.9725408498328105	-6.061244781935464
H	4.727072786317594	-2.203962808194218	-6.062127690739547
H	6.931796367437228	-1.5291900360599915	-5.18626330513045
H	7.095781663213499	0.2231919460794962	-3.4262169893198653
H	5.055380978664873	1.2940580188585673	-2.5487292665905708
H	2.572715127868254	1.5255991705720395	-2.5478790670280738
